<?xml version="1.0" encoding="UTF-8"?>

<!-- generated on Thu  6 Apr 21:09:48 2017 by Netedit Version 0.28.0
<?xml version="1.0" encoding="UTF-8"?>

<configuration xmlns:xsi="http://www.w3.org/2001/XMLSchema-instance" xsi:noNamespaceSchemaLocation="http://sumo.dlr.de/xsd/netedit.exeConfiguration.xsd">

    <input>
        <sumo-net-file value="/Users/gabrielletlim/Documents/ECOLE/CEGEP/SESSION4/PROGRAMMATION/Fichier%20XML%20à%20classer/CentreVilleMtl.net.xml"/>
    </input>

    <output>
        <output-file value="/Users/gabrielletlim/Desktop/CentreVilleMtl.net.xml"/>
        <plain-output-prefix value="/Users/gabrielletlim/Desktop/CentreVilleMtl"/>
    </output>

    <processing>
        <no-turnarounds value="true"/>
        <offset.disable-normalization value="true"/>
        <lefthand value="false"/>
        <junctions.corner-detail value="0"/>
    </processing>

</configuration>
-->

<nodes version="0.27" xmlns:xsi="http://www.w3.org/2001/XMLSchema-instance" xsi:noNamespaceSchemaLocation="http://sumo.dlr.de/xsd/nodes_file.xsd">
    <location netOffset="0.00,0.00" convBoundary="0.00,-84.00,322.00,130.61" origBoundary="-10000000000.00,-10000000000.00,10000000000.00,10000000000.00" projParameter="!"/>

    <node id="ext1" x="0.00" y="90.73" type="unregulated"/>
    <node id="ext10" x="139.64" y="-84.00" type="unregulated"/>
    <node id="ext11" x="202.66" y="-84.00" type="unregulated"/>
    <node id="ext12" x="247.77" y="-84.00" type="unregulated"/>
    <node id="ext13" x="306.50" y="-84.00" type="unregulated"/>
    <node id="ext14" x="322.00" y="-18.05" type="unregulated"/>
    <node id="ext15" x="322.00" y="20.78" type="unregulated"/>
    <node id="ext17" x="322.00" y="130.00" type="unregulated"/>
    <node id="ext2" x="0.00" y="71.04" type="unregulated"/>
    <node id="ext3" x="0.00" y="54.07" type="unregulated"/>
    <node id="ext4" x="0.00" y="25.53" type="unregulated"/>
    <node id="ext5" x="0.00" y="-7.05" type="unregulated"/>
    <node id="ext6" x="0.00" y="-23.87" type="unregulated"/>
    <node id="ext7" x="0.14" y="-52.02" type="unregulated"/>
    <node id="ext8" x="16.13" y="-84.00" type="unregulated"/>
    <node id="ext9" x="75.58" y="-84.00" type="unregulated"/>
    <node id="gneJ1" x="20.47" y="90.73" type="traffic_light" tl="gneJ1"/>
    <node id="gneJ10" x="32.45" y="27.25" type="priority"/>
    <node id="gneJ101" x="106.62" y="86.53" type="priority"/>
    <node id="gneJ102" x="104.90" y="95.13" type="priority"/>
    <node id="gneJ103" x="127.99" y="87.27" type="priority"/>
    <node id="gneJ105" x="127.75" y="97.34" type="traffic_light" tl="gneJ105"/>
    <node id="gneJ106" x="131.92" y="18.96" type="priority"/>
    <node id="gneJ107" x="133.15" y="1.27" type="priority"/>
    <node id="gneJ108" x="115.95" y="-1.19" type="priority"/>
    <node id="gneJ109" x="134.87" y="-15.44" type="priority"/>
    <node id="gneJ11" x="18.92" y="-8.40" type="traffic_light" tl="gneJ11"/>
    <node id="gneJ118" x="136.69" y="86.83" type="priority"/>
    <node id="gneJ12" x="18.19" y="-24.43" type="traffic_light" tl="gneJ12"/>
    <node id="gneJ13" x="17.58" y="-40.39" type="priority"/>
    <node id="gneJ133" x="139.24" y="25.16" type="priority"/>
    <node id="gneJ134" x="162.83" y="18.05" type="priority"/>
    <node id="gneJ137" x="175.91" y="8.10" type="priority"/>
    <node id="gneJ139" x="174.48" y="-13.49" type="priority"/>
    <node id="gneJ14" x="17.88" y="-53.24" type="traffic_light" tl="gneJ14"/>
    <node id="gneJ140" x="143.51" y="-14.92" type="priority"/>
    <node id="gneJ141" x="146.92" y="-56.12" type="priority"/>
    <node id="gneJ142" x="163.97" y="-14.92" type="priority"/>
    <node id="gneJ143" x="169.94" y="-54.99" type="priority"/>
    <node id="gneJ144" x="199.21" y="-54.42" type="traffic_light" tl="gneJ144"/>
    <node id="gneJ145" x="190.68" y="-11.79" type="priority"/>
    <node id="gneJ147" x="187.84" y="8.10" type="unregulated"/>
    <node id="gneJ148" x="158.85" y="26.01" type="priority"/>
    <node id="gneJ150" x="146.92" y="33.68" type="priority"/>
    <node id="gneJ151" x="145.50" y="52.72" type="priority"/>
    <node id="gneJ153" x="151.18" y="77.45" type="priority"/>
    <node id="gneJ154" x="152.03" y="67.50" type="traffic_light" tl="gneJ154"/>
    <node id="gneJ155" x="157.15" y="78.87" type="priority"/>
    <node id="gneJ157" x="154.31" y="99.33" type="priority"/>
    <node id="gneJ167" x="230.51" y="-55.44" type="priority"/>
    <node id="gneJ168" x="222.38" y="-13.85" type="priority"/>
    <node id="gneJ169" x="242.87" y="-12.95" type="priority"/>
    <node id="gneJ170" x="247.09" y="-49.11" type="unregulated"/>
    <node id="gneJ171" x="238.65" y="3.63" type="priority"/>
    <node id="gneJ172" x="236.24" y="11.76" type="unregulated"/>
    <node id="gneJ173" x="199.77" y="1.52" type="priority"/>
    <node id="gneJ176" x="221.47" y="10.26" type="priority"/>
    <node id="gneJ177" x="194.05" y="22.91" type="priority"/>
    <node id="gneJ178" x="209.12" y="9.05" type="priority"/>
    <node id="gneJ179" x="205.50" y="24.72" type="priority"/>
    <node id="gneJ18" x="31.95" y="55.05" type="priority"/>
    <node id="gneJ180" x="232.92" y="26.83" type="priority"/>
    <node id="gneJ183" x="229.61" y="45.82" type="priority"/>
    <node id="gneJ187" x="188.32" y="49.13" type="priority"/>
    <node id="gneJ188" x="225.39" y="59.98" type="unregulated"/>
    <node id="gneJ19" x="31.65" y="71.57" type="priority"/>
    <node id="gneJ190" x="186.82" y="57.87" type="priority"/>
    <node id="gneJ191" x="182.60" y="79.57" type="priority"/>
    <node id="gneJ192" x="183.80" y="72.34" type="unregulated"/>
    <node id="gneJ193" x="222.98" y="77.16" type="priority"/>
    <node id="gneJ195" x="167.83" y="80.17" type="priority"/>
    <node id="gneJ196" x="166.63" y="92.53" type="priority"/>
    <node id="gneJ197" x="179.28" y="94.94" type="priority"/>
    <node id="gneJ198" x="220.27" y="98.25" type="priority"/>
    <node id="gneJ2" x="20.33" y="70.76" type="traffic_light" tl="gneJ2"/>
    <node id="gneJ20" x="31.65" y="91.14" type="priority"/>
    <node id="gneJ200" x="194.05" y="80.77" type="priority"/>
    <node id="gneJ201" x="192.24" y="95.84" type="traffic_light" tl="gneJ201"/>
    <node id="gneJ202" x="177.78" y="105.18" type="unregulated"/>
    <node id="gneJ205" x="216.05" y="116.33" type="unregulated"/>
    <node id="gneJ21" x="46.33" y="91.14" type="priority"/>
    <node id="gneJ211" x="230.85" y="120.65" type="priority"/>
    <node id="gneJ212" x="236.16" y="97.10" type="unregulated"/>
    <node id="gneJ213" x="235.83" y="85.48" type="priority"/>
    <node id="gneJ214" x="228.19" y="83.16" type="priority"/>
    <node id="gneJ22" x="47.25" y="71.87" type="traffic_light" tl="gneJ22"/>
    <node id="gneJ220" x="232.51" y="59.60" type="priority"/>
    <node id="gneJ221" x="242.46" y="60.93" type="priority"/>
    <node id="gneJ223" x="249.76" y="26.42" type="unregulated"/>
    <node id="gneJ228" x="253.08" y="12.15" type="priority"/>
    <node id="gneJ229" x="269.34" y="14.47" type="priority"/>
    <node id="gneJ23" x="47.25" y="55.96" type="priority"/>
    <node id="gneJ230" x="263.70" y="28.41" type="priority"/>
    <node id="gneJ231" x="271.99" y="42.01" type="priority"/>
    <node id="gneJ232" x="284.60" y="16.46" type="priority"/>
    <node id="gneJ233" x="265.36" y="64.25" type="priority"/>
    <node id="gneJ234" x="296.22" y="41.35" type="priority"/>
    <node id="gneJ235" x="300.86" y="16.79" type="priority"/>
    <node id="gneJ237" x="289.91" y="68.56" type="traffic_light" tl="gneJ237"/>
    <node id="gneJ238" x="282.28" y="88.47" type="priority"/>
    <node id="gneJ24" x="46.64" y="29.05" type="traffic_light" tl="gneJ24"/>
    <node id="gneJ240" x="276.64" y="111.03" type="priority"/>
    <node id="gneJ241" x="270.00" y="130.61" type="priority"/>
    <node id="gneJ242" x="302.19" y="-6.10" type="priority"/>
    <node id="gneJ243" x="276.31" y="-9.09" type="priority"/>
    <node id="gneJ244" x="277.64" y="-23.02" type="priority"/>
    <node id="gneJ245" x="300.86" y="-19.04" type="priority"/>
    <node id="gneJ247" x="304.18" y="-51.89" type="priority"/>
    <node id="gneJ248" x="263.70" y="-25.01" type="priority"/>
    <node id="gneJ249" x="267.68" y="-53.55" type="priority"/>
    <node id="gneJ25" x="46.94" y="13.45" type="unregulated"/>
    <node id="gneJ250" x="243.46" y="-27.67" type="priority"/>
    <node id="gneJ258" x="322.00" y="72.27" type="unregulated"/>
    <node id="gneJ26" x="39.91" y="-7.05" type="traffic_light" tl="gneJ26"/>
    <node id="gneJ27" x="40.82" y="-23.26" type="traffic_light" tl="gneJ27"/>
    <node id="gneJ277" x="93.75" y="-39.63" type="priority"/>
    <node id="gneJ279" x="96.41" y="22.90" type="priority"/>
    <node id="gneJ281" x="131.21" y="9.40" type="priority"/>
    <node id="gneJ282" x="135.32" y="98.16" type="priority"/>
    <node id="gneJ283" x="137.23" y="76.22" type="priority"/>
    <node id="gneJ284" x="139.79" y="65.78" type="priority"/>
    <node id="gneJ285" x="139.79" y="54.49" type="priority"/>
    <node id="gneJ286" x="154.70" y="54.70" type="priority"/>
    <node id="gneJ287" x="138.30" y="34.47" type="traffic_light" tl="gneJ287"/>
    <node id="gneJ288" x="155.55" y="36.17" type="priority"/>
    <node id="gneJ289" x="174.73" y="-1.11" type="priority"/>
    <node id="gneJ292" x="156.27" y="90.79" type="priority"/>
    <node id="gneJ293" x="217.00" y="106.47" type="priority"/>
    <node id="gneJ294" x="219.74" y="83.82" type="priority"/>
    <node id="gneJ296" x="231.94" y="74.12" type="priority"/>
    <node id="gneJ297" x="226.46" y="52.71" type="priority"/>
    <node id="gneJ298" x="191.87" y="40.02" type="priority"/>
    <node id="gneJ30" x="53.67" y="-7.05" type="priority"/>
    <node id="gneJ300" x="189.13" y="0.19" type="priority"/>
    <node id="gneJ301" x="198.83" y="9.40" type="priority"/>
    <node id="gneJ303" x="226.21" y="1.44" type="priority"/>
    <node id="gneJ304" x="240.65" y="26.42" type="priority"/>
    <node id="gneJ305" x="244.73" y="9.83" type="priority"/>
    <node id="gneJ32" x="54.28" y="-23.26" type="priority"/>
    <node id="gneJ33" x="64.38" y="-7.05" type="traffic_light" tl="gneJ33"/>
    <node id="gneJ34" x="63.77" y="-22.96" type="priority"/>
    <node id="gneJ35" x="38.68" y="-41.00" type="priority"/>
    <node id="gneJ36" x="37.76" y="-54.46" type="priority"/>
    <node id="gneJ37" x="69.88" y="-54.16" type="traffic_light" tl="gneJ37"/>
    <node id="gneJ38" x="61.32" y="13.75" type="priority"/>
    <node id="gneJ39" x="59.48" y="30.27" type="priority"/>
    <node id="gneJ4" x="19.61" y="54.49" type="traffic_light" tl="gneJ4"/>
    <node id="gneJ40" x="46.02" y="44.95" type="priority"/>
    <node id="gneJ42" x="58.26" y="44.95" type="traffic_light" tl="gneJ42"/>
    <node id="gneJ43" x="58.26" y="57.19" type="priority"/>
    <node id="gneJ44" x="58.87" y="72.18" type="priority"/>
    <node id="gneJ45" x="58.26" y="92.67" type="priority"/>
    <node id="gneJ46" x="76.92" y="94.20" type="traffic_light" tl="gneJ46"/>
    <node id="gneJ47" x="75.39" y="72.48" type="priority"/>
    <node id="gneJ48" x="75.39" y="58.11" type="traffic_light" tl="gneJ48"/>
    <node id="gneJ50" x="74.49" y="51.85" type="priority"/>
    <node id="gneJ51" x="75.55" y="30.00" type="priority"/>
    <node id="gneJ52" x="73.94" y="14.09" type="priority"/>
    <node id="gneJ53" x="75.42" y="-7.28" type="priority"/>
    <node id="gneJ54" x="75.14" y="-21.51" type="priority"/>
    <node id="gneJ55" x="77.63" y="-54.42" type="priority"/>
    <node id="gneJ56" x="110.41" y="-55.53" type="priority"/>
    <node id="gneJ57" x="109.30" y="-41.16" type="traffic_light" tl="gneJ57"/>
    <node id="gneJ59" x="91.62" y="-20.17" type="priority"/>
    <node id="gneJ6" x="19.19" y="25.82" type="traffic_light" tl="gneJ6"/>
    <node id="gneJ61" x="121.46" y="-39.32" type="priority"/>
    <node id="gneJ62" x="119.25" y="-16.85" type="priority"/>
    <node id="gneJ63" x="137.66" y="-54.06" type="priority"/>
    <node id="gneJ64" x="88.68" y="-5.07" type="priority"/>
    <node id="gneJ66" x="100.46" y="-18.33" type="priority"/>
    <node id="gneJ67" x="97.52" y="-3.59" type="priority"/>
    <node id="gneJ68" x="95.31" y="15.93" type="traffic_light" tl="gneJ68"/>
    <node id="gneJ71" x="93.46" y="32.14" type="priority"/>
    <node id="gneJ74" x="132.14" y="34.71" type="priority"/>
    <node id="gneJ75" x="90.52" y="54.60" type="priority"/>
    <node id="gneJ77" x="110.04" y="55.71" type="priority"/>
    <node id="gneJ8" x="18.90" y="13.27" type="traffic_light" tl="gneJ8"/>
    <node id="gneJ81" x="132.51" y="55.71" type="priority"/>
    <node id="gneJ86" x="89.32" y="60.37" type="priority"/>
    <node id="gneJ87" x="88.83" y="73.48" type="priority"/>
    <node id="gneJ88" x="87.17" y="92.89" type="unregulated"/>
    <node id="gneJ9" x="33.88" y="12.84" type="traffic_light" tl="gneJ9"/>
    <node id="gneJ96" x="131.21" y="67.28" type="priority"/>
    <node id="gneJ97" x="128.64" y="78.01" type="priority"/>
    <node id="gneJ98" x="88.73" y="86.60" type="priority"/>
</nodes>
