<?xml version="1.0" encoding="UTF-8"?>
<routes xmlns:xsi="http://www.w3.org/501/XMLSchema-instance" xsi:noNamespaceSchemaLocation="http://sumo.dlr.de/xsd/routes_file.xsd">
  <vType accel="1.0" decel="5.0" id="Car" length="5.0" minGap="2.0" maxSpeed="50.0" sigma="0" />
  
  
	<flow id="flow_1-2_a" from="-gneE483" to="-gneE481" begin="0" end="100" number="1"/>
	<flow id="flow_1-3_a" from="-gneE483" to="-gneE480" begin="0" end="100" number="1"/>
	<flow id="flow_1-4_a" from="-gneE483" to="-gneE479" begin="0" end="100" number="1"/>
	<flow id="flow_1-5_a" from="-gneE483" to="-gneE478" begin="0" end="100" number="1"/>
	<flow id="flow_1-6_a" from="-gneE483" to="gneE16" begin="0" end="100" number="1"/>
	<flow id="flow_1-7_a" from="-gneE483" to="gneE430" begin="0" end="100" number="1"/>
	<flow id="flow_1-8_a" from="-gneE483" to="gneE429" begin="0" end="100" number="1"/>
	<flow id="flow_1-9_a" from="-gneE483" to="gneE436" begin="0" end="100" number="1"/>
	<flow id="flow_1-10_a" from="-gneE483" to="gneE438" begin="0" end="100" number="1"/>
	<flow id="flow_1-11_a" from="-gneE483" to="gneE442" begin="0" end="100" number="1"/>
	<flow id="flow_1-12_a" from="-gneE483" to="-gneE445" begin="0" end="100" number="1"/>
	<flow id="flow_1-13_a" from="-gneE483" to="gneE448" begin="0" end="100" number="1"/>
	<flow id="flow_1-14_a" from="-gneE483" to="gneE452" begin="0" end="100" number="1"/>
	<flow id="flow_1-15_a" from="-gneE483" to="gneE453" begin="0" end="100" number="1"/>
	<flow id="flow_1-16_a" from="-gneE483" to="gneE458" begin="0" end="100" number="1"/>
	<flow id="flow_1-17_a" from="-gneE483" to="gneE462" begin="0" end="100" number="1"/>
	
	<flow id="flow_2-1_a" from="gneE481" to="gneE483" begin="0" end="100" number="1"/>
	<flow id="flow_2-3_a" from="gneE481" to="-gneE480" begin="0" end="100" number="1"/>
	<flow id="flow_2-4_a" from="gneE481" to="-gneE479" begin="0" end="100" number="1"/>
	<flow id="flow_2-5_a" from="gneE481" to="-gneE478" begin="0" end="100" number="1"/>
	<flow id="flow_2-6_a" from="gneE481" to="gneE16" begin="0" end="100" number="1"/>
	<flow id="flow_2-7_a" from="gneE481" to="gneE430" begin="0" end="100" number="1"/>
	<flow id="flow_2-8_a" from="gneE481" to="gneE429" begin="0" end="100" number="1"/>
	<flow id="flow_2-9_a" from="gneE481" to="gneE436" begin="0" end="100" number="1"/>
	<flow id="flow_2-10_a" from="gneE481" to="gneE438" begin="0" end="100" number="1"/>
	<flow id="flow_2-11_a" from="gneE481" to="gneE442" begin="0" end="100" number="1"/>
	<flow id="flow_2-12_a" from="gneE481" to="-gneE445" begin="0" end="100" number="1"/>
	<flow id="flow_2-13_a" from="gneE481" to="gneE448" begin="0" end="100" number="1"/>
	<flow id="flow_2-14_a" from="gneE481" to="gneE452" begin="0" end="100" number="1"/>
	<flow id="flow_2-15_a" from="gneE481" to="gneE453" begin="0" end="100" number="1"/>
	<flow id="flow_2-16_a" from="gneE481" to="gneE458" begin="0" end="100" number="1"/>
	<flow id="flow_2-17_a" from="gneE481" to="gneE462" begin="0" end="100" number="1"/>
	
	<flow id="flow_3-1_a" from="gneE480" to="gneE483" begin="0" end="100" number="1"/>
	<flow id="flow_3-2_a" from="gneE480" to="-gneE481" begin="0" end="100" number="1"/>
	<flow id="flow_3-4_a" from="gneE480" to="-gneE479" begin="0" end="100" number="1"/>
	<flow id="flow_3-5_a" from="gneE480" to="-gneE478" begin="0" end="100" number="1"/>
	<flow id="flow_3-6_a" from="gneE480" to="gneE16" begin="0" end="100" number="1"/>
	<flow id="flow_3-7_a" from="gneE480" to="gneE430" begin="0" end="100" number="1"/>
	<flow id="flow_3-8_a" from="gneE480" to="gneE429" begin="0" end="100" number="1"/>
	<flow id="flow_3-9_a" from="gneE480" to="gneE436" begin="0" end="100" number="1"/>
	<flow id="flow_3-10_a" from="gneE480" to="gneE438" begin="0" end="100" number="1"/>
	<flow id="flow_3-11_a" from="gneE480" to="gneE442" begin="0" end="100" number="1"/>
	<flow id="flow_3-12_a" from="gneE480" to="-gneE445" begin="0" end="100" number="1"/>
	<flow id="flow_3-13_a" from="gneE480" to="gneE448" begin="0" end="100" number="1"/>
	<flow id="flow_3-14_a" from="gneE480" to="gneE452" begin="0" end="100" number="1"/>
	<flow id="flow_3-15_a" from="gneE480" to="gneE453" begin="0" end="100" number="1"/>
	<flow id="flow_3-16_a" from="gneE480" to="gneE458" begin="0" end="100" number="1"/>
	<flow id="flow_3-17_a" from="gneE480" to="gneE462" begin="0" end="100" number="1"/>
	
	<flow id="flow_4-1_a" from="gneE479" to="gneE483" begin="0" end="100" number="1"/>
	<flow id="flow_4-2_a" from="gneE479" to="-gneE481" begin="0" end="100" number="1"/>
	<flow id="flow_4-3_a" from="gneE479" to="-gneE480" begin="0" end="100" number="1"/>
	<flow id="flow_4-5_a" from="gneE479" to="-gneE478" begin="0" end="100" number="1"/>
	<flow id="flow_4-6_a" from="gneE479" to="gneE16" begin="0" end="100" number="1"/>
	<flow id="flow_4-7_a" from="gneE479" to="gneE430" begin="0" end="100" number="1"/>
	<flow id="flow_4-8_a" from="gneE479" to="gneE429" begin="0" end="100" number="1"/>
	<flow id="flow_4-9_a" from="gneE479" to="gneE436" begin="0" end="100" number="1"/>
	<flow id="flow_4-10_a" from="gneE479" to="gneE438" begin="0" end="100" number="1"/>
	<flow id="flow_4-11_a" from="gneE479" to="gneE442" begin="0" end="100" number="1"/>
	<flow id="flow_4-12_a" from="gneE479" to="-gneE445" begin="0" end="100" number="1"/>
	<flow id="flow_4-13_a" from="gneE479" to="gneE448" begin="0" end="100" number="1"/>
	<flow id="flow_4-14_a" from="gneE479" to="gneE452" begin="0" end="100" number="1"/>
	<flow id="flow_4-15_a" from="gneE479" to="gneE453" begin="0" end="100" number="1"/>
	<flow id="flow_4-16_a" from="gneE479" to="gneE458" begin="0" end="100" number="1"/>
	<flow id="flow_4-17_a" from="gneE479" to="gneE462" begin="0" end="100" number="1"/>
	
	<flow id="flow_5-1_a" from="gneE478" to="gneE483" begin="0" end="100" number="1"/>
	<flow id="flow_5-2_a" from="gneE478" to="-gneE481" begin="0" end="100" number="1"/>
	<flow id="flow_5-3_a" from="gneE478" to="-gneE480" begin="0" end="100" number="1"/>
	<flow id="flow_5-4_a" from="gneE478" to="-gneE479" begin="0" end="100" number="1"/>
	<flow id="flow_5-6_a" from="gneE478" to="gneE16" begin="0" end="100" number="1"/>
	<flow id="flow_5-7_a" from="gneE478" to="gneE430" begin="0" end="100" number="1"/>
	<flow id="flow_5-8_a" from="gneE478" to="gneE429" begin="0" end="100" number="1"/>
	<flow id="flow_5-9_a" from="gneE478" to="gneE436" begin="0" end="100" number="1"/>
	<flow id="flow_5-10_a" from="gneE478" to="gneE438" begin="0" end="100" number="1"/>
	<flow id="flow_5-11_a" from="gneE478" to="gneE442" begin="0" end="100" number="1"/>
	<flow id="flow_5-12_a" from="gneE478" to="-gneE445" begin="0" end="100" number="1"/>
	<flow id="flow_5-13_a" from="gneE478" to="gneE448" begin="0" end="100" number="1"/>
	<flow id="flow_5-14_a" from="gneE478" to="gneE452" begin="0" end="100" number="1"/>
	<flow id="flow_5-15_a" from="gneE478" to="gneE453" begin="0" end="100" number="1"/>
	<flow id="flow_5-16_a" from="gneE478" to="gneE458" begin="0" end="100" number="1"/>
	<flow id="flow_5-17_a" from="gneE478" to="gneE462" begin="0" end="100" number="1"/>
	
	<flow id="flow_7-1_a" from="-gneE430" to="gneE483" begin="0" end="100" number="1"/>
	<flow id="flow_7-2_a" from="-gneE430" to="-gneE481" begin="0" end="100" number="1"/>
	<flow id="flow_7-3_a" from="-gneE430" to="-gneE480" begin="0" end="100" number="1"/>
	<flow id="flow_7-4_a" from="-gneE430" to="-gneE479" begin="0" end="100" number="1"/>
	<flow id="flow_7-6_a" from="-gneE430" to="gneE16" begin="0" end="100" number="1"/>
	<flow id="flow_7-5_a" from="-gneE430" to="-gneE478" begin="0" end="100" number="1"/>
	<flow id="flow_7-8_a" from="-gneE430" to="gneE429" begin="0" end="100" number="1"/>
	<flow id="flow_7-9_a" from="-gneE430" to="gneE436" begin="0" end="100" number="1"/>
	<flow id="flow_7-10_a" from="-gneE430" to="gneE438" begin="0" end="100" number="1"/>
	<flow id="flow_7-11_a" from="-gneE430" to="gneE442" begin="0" end="100" number="1"/>
	<flow id="flow_7-12_a" from="-gneE430" to="-gneE445" begin="0" end="100" number="1"/>
	<flow id="flow_7-13_a" from="-gneE430" to="gneE448" begin="0" end="100" number="1"/>
	<flow id="flow_7-14_a" from="-gneE430" to="gneE452" begin="0" end="100" number="1"/>
	<flow id="flow_7-15_a" from="-gneE430" to="gneE453" begin="0" end="100" number="1"/>
	<flow id="flow_7-16_a" from="-gneE430" to="gneE458" begin="0" end="100" number="1"/>
	<flow id="flow_7-17_a" from="-gneE430" to="gneE462" begin="0" end="100" number="1"/>
	
	<flow id="flow_8-1_a" from="-gneE429" to="gneE483" begin="0" end="100" number="1"/>
	<flow id="flow_8-2_a" from="-gneE429" to="-gneE481" begin="0" end="100" number="1"/>
	<flow id="flow_8-3_a" from="-gneE429" to="-gneE480" begin="0" end="100" number="1"/>
	<flow id="flow_8-4_a" from="-gneE429" to="-gneE479" begin="0" end="100" number="1"/>
	<flow id="flow_8-6_a" from="-gneE429" to="gneE16" begin="0" end="100" number="1"/>
	<flow id="flow_8-5_a" from="-gneE429" to="-gneE478" begin="0" end="100" number="1"/>
	<flow id="flow_8-7_a" from="-gneE429" to="gneE430" begin="0" end="100" number="1"/>
	<flow id="flow_8-9_a" from="-gneE429" to="gneE436" begin="0" end="100" number="1"/>
	<flow id="flow_8-10_a" from="-gneE429" to="gneE438" begin="0" end="100" number="1"/>
	<flow id="flow_8-11_a" from="-gneE429" to="gneE442" begin="0" end="100" number="1"/>
	<flow id="flow_8-12_a" from="-gneE429" to="-gneE445" begin="0" end="100" number="1"/>
	<flow id="flow_8-13_a" from="-gneE429" to="gneE448" begin="0" end="100" number="1"/>
	<flow id="flow_8-14_a" from="-gneE429" to="gneE452" begin="0" end="100" number="1"/>
	<flow id="flow_8-15_a" from="-gneE429" to="gneE453" begin="0" end="100" number="1"/>
	<flow id="flow_8-16_a" from="-gneE429" to="gneE458" begin="0" end="100" number="1"/>
	<flow id="flow_8-17_a" from="-gneE429" to="gneE462" begin="0" end="100" number="1"/>
	
	<flow id="flow_1-2_b" from="-gneE483" to="-gneE481" begin="3" end="103" number="1"/>
	<flow id="flow_1-3_b" from="-gneE483" to="-gneE480" begin="3" end="103" number="1"/>
	<flow id="flow_1-4_b" from="-gneE483" to="-gneE479" begin="3" end="103" number="1"/>
	<flow id="flow_1-5_b" from="-gneE483" to="-gneE478" begin="3" end="103" number="1"/>
	<flow id="flow_1-6_b" from="-gneE483" to="gneE16" begin="3" end="103" number="1"/>
	<flow id="flow_1-7_b" from="-gneE483" to="gneE430" begin="3" end="103" number="1"/>
	<flow id="flow_1-8_b" from="-gneE483" to="gneE429" begin="3" end="103" number="1"/>
	<flow id="flow_1-9_b" from="-gneE483" to="gneE436" begin="3" end="103" number="1"/>
	<flow id="flow_1-10_b" from="-gneE483" to="gneE438" begin="3" end="103" number="1"/>
	<flow id="flow_1-11_b" from="-gneE483" to="gneE442" begin="3" end="103" number="1"/>
	<flow id="flow_1-12_b" from="-gneE483" to="-gneE445" begin="3" end="103" number="1"/>
	<flow id="flow_1-13_b" from="-gneE483" to="gneE448" begin="3" end="103" number="1"/>
	<flow id="flow_1-14_b" from="-gneE483" to="gneE452" begin="3" end="103" number="1"/>
	<flow id="flow_1-15_b" from="-gneE483" to="gneE453" begin="3" end="103" number="1"/>
	<flow id="flow_1-16_b" from="-gneE483" to="gneE458" begin="3" end="103" number="1"/>
	<flow id="flow_1-17_b" from="-gneE483" to="gneE462" begin="3" end="103" number="1"/>
	
	<flow id="flow_2-1_b" from="gneE481" to="gneE483" begin="3" end="103" number="1"/>
	<flow id="flow_2-3_b" from="gneE481" to="-gneE480" begin="3" end="103" number="1"/>
	<flow id="flow_2-4_b" from="gneE481" to="-gneE479" begin="3" end="103" number="1"/>
	<flow id="flow_2-5_b" from="gneE481" to="-gneE478" begin="3" end="103" number="1"/>
	<flow id="flow_2-6_b" from="gneE481" to="gneE16" begin="3" end="103" number="1"/>
	<flow id="flow_2-7_b" from="gneE481" to="gneE430" begin="3" end="103" number="1"/>
	<flow id="flow_2-8_b" from="gneE481" to="gneE429" begin="3" end="103" number="1"/>
	<flow id="flow_2-9_b" from="gneE481" to="gneE436" begin="3" end="103" number="1"/>
	<flow id="flow_2-10_b" from="gneE481" to="gneE438" begin="3" end="103" number="1"/>
	<flow id="flow_2-11_b" from="gneE481" to="gneE442" begin="3" end="103" number="1"/>
	<flow id="flow_2-12_b" from="gneE481" to="-gneE445" begin="3" end="103" number="1"/>
	<flow id="flow_2-13_b" from="gneE481" to="gneE448" begin="3" end="103" number="1"/>
	<flow id="flow_2-14_b" from="gneE481" to="gneE452" begin="3" end="103" number="1"/>
	<flow id="flow_2-15_b" from="gneE481" to="gneE453" begin="3" end="103" number="1"/>
	<flow id="flow_2-16_b" from="gneE481" to="gneE458" begin="3" end="103" number="1"/>
	<flow id="flow_2-17_b" from="gneE481" to="gneE462" begin="3" end="103" number="1"/>
	
	<flow id="flow_3-1_b" from="gneE480" to="gneE483" begin="3" end="103" number="1"/>
	<flow id="flow_3-2_b" from="gneE480" to="-gneE481" begin="3" end="103" number="1"/>
	<flow id="flow_3-4_b" from="gneE480" to="-gneE479" begin="3" end="103" number="1"/>
	<flow id="flow_3-5_b" from="gneE480" to="-gneE478" begin="3" end="103" number="1"/>
	<flow id="flow_3-6_b" from="gneE480" to="gneE16" begin="3" end="103" number="1"/>
	<flow id="flow_3-7_b" from="gneE480" to="gneE430" begin="3" end="103" number="1"/>
	<flow id="flow_3-8_b" from="gneE480" to="gneE429" begin="3" end="103" number="1"/>
	<flow id="flow_3-9_b" from="gneE480" to="gneE436" begin="3" end="103" number="1"/>
	<flow id="flow_3-10_b" from="gneE480" to="gneE438" begin="3" end="103" number="1"/>
	<flow id="flow_3-11_b" from="gneE480" to="gneE442" begin="3" end="103" number="1"/>
	<flow id="flow_3-12_b" from="gneE480" to="-gneE445" begin="3" end="103" number="1"/>
	<flow id="flow_3-13_b" from="gneE480" to="gneE448" begin="3" end="103" number="1"/>
	<flow id="flow_3-14_b" from="gneE480" to="gneE452" begin="3" end="103" number="1"/>
	<flow id="flow_3-15_b" from="gneE480" to="gneE453" begin="3" end="103" number="1"/>
	<flow id="flow_3-16_b" from="gneE480" to="gneE458" begin="3" end="103" number="1"/>
	<flow id="flow_3-17_b" from="gneE480" to="gneE462" begin="3" end="103" number="1"/>
	
	<flow id="flow_4-1_b" from="gneE479" to="gneE483" begin="3" end="103" number="1"/>
	<flow id="flow_4-2_b" from="gneE479" to="-gneE481" begin="3" end="103" number="1"/>
	<flow id="flow_4-3_b" from="gneE479" to="-gneE480" begin="3" end="103" number="1"/>
	<flow id="flow_4-5_b" from="gneE479" to="-gneE478" begin="3" end="103" number="1"/>
	<flow id="flow_4-6_b" from="gneE479" to="gneE16" begin="3" end="103" number="1"/>
	<flow id="flow_4-7_b" from="gneE479" to="gneE430" begin="3" end="103" number="1"/>
	<flow id="flow_4-8_b" from="gneE479" to="gneE429" begin="3" end="103" number="1"/>
	<flow id="flow_4-9_b" from="gneE479" to="gneE436" begin="3" end="103" number="1"/>
	<flow id="flow_4-10_b" from="gneE479" to="gneE438" begin="3" end="103" number="1"/>
	<flow id="flow_4-11_b" from="gneE479" to="gneE442" begin="3" end="103" number="1"/>
	<flow id="flow_4-12_b" from="gneE479" to="-gneE445" begin="3" end="103" number="1"/>
	<flow id="flow_4-13_b" from="gneE479" to="gneE448" begin="3" end="103" number="1"/>
	<flow id="flow_4-14_b" from="gneE479" to="gneE452" begin="3" end="103" number="1"/>
	<flow id="flow_4-15_b" from="gneE479" to="gneE453" begin="3" end="103" number="1"/>
	<flow id="flow_4-16_b" from="gneE479" to="gneE458" begin="3" end="103" number="1"/>
	<flow id="flow_4-17_b" from="gneE479" to="gneE462" begin="3" end="103" number="1"/>
	
	<flow id="flow_5-1_b" from="gneE478" to="gneE483" begin="3" end="103" number="1"/>
	<flow id="flow_5-2_b" from="gneE478" to="-gneE481" begin="3" end="103" number="1"/>
	<flow id="flow_5-3_b" from="gneE478" to="-gneE480" begin="3" end="103" number="1"/>
	<flow id="flow_5-4_b" from="gneE478" to="-gneE479" begin="3" end="103" number="1"/>
	<flow id="flow_5-6_b" from="gneE478" to="gneE16" begin="3" end="103" number="1"/>
	<flow id="flow_5-7_b" from="gneE478" to="gneE430" begin="3" end="103" number="1"/>
	<flow id="flow_5-8_b" from="gneE478" to="gneE429" begin="3" end="103" number="1"/>
	<flow id="flow_5-9_b" from="gneE478" to="gneE436" begin="3" end="103" number="1"/>
	<flow id="flow_5-10_b" from="gneE478" to="gneE438" begin="3" end="103" number="1"/>
	<flow id="flow_5-11_b" from="gneE478" to="gneE442" begin="3" end="103" number="1"/>
	<flow id="flow_5-12_b" from="gneE478" to="-gneE445" begin="3" end="103" number="1"/>
	<flow id="flow_5-13_b" from="gneE478" to="gneE448" begin="3" end="103" number="1"/>
	<flow id="flow_5-14_b" from="gneE478" to="gneE452" begin="3" end="103" number="1"/>
	<flow id="flow_5-15_b" from="gneE478" to="gneE453" begin="3" end="103" number="1"/>
	<flow id="flow_5-16_b" from="gneE478" to="gneE458" begin="3" end="103" number="1"/>
	<flow id="flow_5-17_b" from="gneE478" to="gneE462" begin="3" end="103" number="1"/>
	
	<flow id="flow_7-1_b" from="-gneE430" to="gneE483" begin="3" end="103" number="1"/>
	<flow id="flow_7-2_b" from="-gneE430" to="-gneE481" begin="3" end="103" number="1"/>
	<flow id="flow_7-3_b" from="-gneE430" to="-gneE480" begin="3" end="103" number="1"/>
	<flow id="flow_7-4_b" from="-gneE430" to="-gneE479" begin="3" end="103" number="1"/>
	<flow id="flow_7-6_b" from="-gneE430" to="gneE16" begin="3" end="103" number="1"/>
	<flow id="flow_7-5_b" from="-gneE430" to="-gneE478" begin="3" end="103" number="1"/>
	<flow id="flow_7-8_b" from="-gneE430" to="gneE429" begin="3" end="103" number="1"/>
	<flow id="flow_7-9_b" from="-gneE430" to="gneE436" begin="3" end="103" number="1"/>
	<flow id="flow_7-10_b" from="-gneE430" to="gneE438" begin="3" end="103" number="1"/>
	<flow id="flow_7-11_b" from="-gneE430" to="gneE442" begin="3" end="103" number="1"/>
	<flow id="flow_7-12_b" from="-gneE430" to="-gneE445" begin="3" end="103" number="1"/>
	<flow id="flow_7-13_b" from="-gneE430" to="gneE448" begin="3" end="103" number="1"/>
	<flow id="flow_7-14_b" from="-gneE430" to="gneE452" begin="3" end="103" number="1"/>
	<flow id="flow_7-15_b" from="-gneE430" to="gneE453" begin="3" end="103" number="1"/>
	<flow id="flow_7-16_b" from="-gneE430" to="gneE458" begin="3" end="103" number="1"/>
	<flow id="flow_7-17_b" from="-gneE430" to="gneE462" begin="3" end="103" number="1"/>
	
	<flow id="flow_8-1_b" from="-gneE429" to="gneE483" begin="3" end="103" number="1"/>
	<flow id="flow_8-2_b" from="-gneE429" to="-gneE481" begin="3" end="103" number="1"/>
	<flow id="flow_8-3_b" from="-gneE429" to="-gneE480" begin="3" end="103" number="1"/>
	<flow id="flow_8-4_b" from="-gneE429" to="-gneE479" begin="3" end="103" number="1"/>
	<flow id="flow_8-6_b" from="-gneE429" to="gneE16" begin="3" end="103" number="1"/>
	<flow id="flow_8-5_b" from="-gneE429" to="-gneE478" begin="3" end="103" number="1"/>
	<flow id="flow_8-7_b" from="-gneE429" to="gneE430" begin="3" end="103" number="1"/>
	<flow id="flow_8-9_b" from="-gneE429" to="gneE436" begin="3" end="103" number="1"/>
	<flow id="flow_8-10_b" from="-gneE429" to="gneE438" begin="3" end="103" number="1"/>
	<flow id="flow_8-11_b" from="-gneE429" to="gneE442" begin="3" end="103" number="1"/>
	<flow id="flow_8-12_b" from="-gneE429" to="-gneE445" begin="3" end="103" number="1"/>
	<flow id="flow_8-13_b" from="-gneE429" to="gneE448" begin="3" end="103" number="1"/>
	<flow id="flow_8-14_b" from="-gneE429" to="gneE452" begin="3" end="103" number="1"/>
	<flow id="flow_8-15_b" from="-gneE429" to="gneE453" begin="3" end="103" number="1"/>
	<flow id="flow_8-16_b" from="-gneE429" to="gneE458" begin="3" end="103" number="1"/>
	<flow id="flow_8-17_b" from="-gneE429" to="gneE462" begin="3" end="103" number="1"/>

	<flow id="flow_1-2_c" from="-gneE483" to="-gneE481" begin="6" end="106" number="1"/>
	<flow id="flow_1-3_c" from="-gneE483" to="-gneE480" begin="6" end="106" number="1"/>
	<flow id="flow_1-4_c" from="-gneE483" to="-gneE479" begin="6" end="106" number="1"/>
	<flow id="flow_1-5_c" from="-gneE483" to="-gneE478" begin="6" end="106" number="1"/>
	<flow id="flow_1-6_c" from="-gneE483" to="gneE16" begin="6" end="106" number="1"/>
	<flow id="flow_1-7_c" from="-gneE483" to="gneE430" begin="6" end="106" number="1"/>
	<flow id="flow_1-8_c" from="-gneE483" to="gneE429" begin="6" end="106" number="1"/>
	<flow id="flow_1-9_c" from="-gneE483" to="gneE436" begin="6" end="106" number="1"/>
	<flow id="flow_1-10_c" from="-gneE483" to="gneE438" begin="6" end="106" number="1"/>
	<flow id="flow_1-11_c" from="-gneE483" to="gneE442" begin="6" end="106" number="1"/>
	<flow id="flow_1-12_c" from="-gneE483" to="-gneE445" begin="6" end="106" number="1"/>
	<flow id="flow_1-13_c" from="-gneE483" to="gneE448" begin="6" end="106" number="1"/>
	<flow id="flow_1-14_c" from="-gneE483" to="gneE452" begin="6" end="106" number="1"/>
	<flow id="flow_1-15_c" from="-gneE483" to="gneE453" begin="6" end="106" number="1"/>
	<flow id="flow_1-16_c" from="-gneE483" to="gneE458" begin="6" end="106" number="1"/>
	<flow id="flow_1-17_c" from="-gneE483" to="gneE462" begin="6" end="106" number="1"/>
	
	<flow id="flow_2-1_c" from="gneE481" to="gneE483" begin="6" end="106" number="1"/>
	<flow id="flow_2-3_c" from="gneE481" to="-gneE480" begin="6" end="106" number="1"/>
	<flow id="flow_2-4_c" from="gneE481" to="-gneE479" begin="6" end="106" number="1"/>
	<flow id="flow_2-5_c" from="gneE481" to="-gneE478" begin="6" end="106" number="1"/>
	<flow id="flow_2-6_c" from="gneE481" to="gneE16" begin="6" end="106" number="1"/>
	<flow id="flow_2-7_c" from="gneE481" to="gneE430" begin="6" end="106" number="1"/>
	<flow id="flow_2-8_c" from="gneE481" to="gneE429" begin="6" end="106" number="1"/>
	<flow id="flow_2-9_c" from="gneE481" to="gneE436" begin="6" end="106" number="1"/>
	<flow id="flow_2-10_c" from="gneE481" to="gneE438" begin="6" end="106" number="1"/>
	<flow id="flow_2-11_c" from="gneE481" to="gneE442" begin="6" end="106" number="1"/>
	<flow id="flow_2-12_c" from="gneE481" to="-gneE445" begin="6" end="106" number="1"/>
	<flow id="flow_2-13_c" from="gneE481" to="gneE448" begin="6" end="106" number="1"/>
	<flow id="flow_2-14_c" from="gneE481" to="gneE452" begin="6" end="106" number="1"/>
	<flow id="flow_2-15_c" from="gneE481" to="gneE453" begin="6" end="106" number="1"/>
	<flow id="flow_2-16_c" from="gneE481" to="gneE458" begin="6" end="106" number="1"/>
	<flow id="flow_2-17_c" from="gneE481" to="gneE462" begin="6" end="106" number="1"/>
	
	<flow id="flow_3-1_c" from="gneE480" to="gneE483" begin="6" end="106" number="1"/>
	<flow id="flow_3-2_c" from="gneE480" to="-gneE481" begin="6" end="106" number="1"/>
	<flow id="flow_3-4_c" from="gneE480" to="-gneE479" begin="6" end="106" number="1"/>
	<flow id="flow_3-5_c" from="gneE480" to="-gneE478" begin="6" end="106" number="1"/>
	<flow id="flow_3-6_c" from="gneE480" to="gneE16" begin="6" end="106" number="1"/>
	<flow id="flow_3-7_c" from="gneE480" to="gneE430" begin="6" end="106" number="1"/>
	<flow id="flow_3-8_c" from="gneE480" to="gneE429" begin="6" end="106" number="1"/>
	<flow id="flow_3-9_c" from="gneE480" to="gneE436" begin="6" end="106" number="1"/>
	<flow id="flow_3-10_c" from="gneE480" to="gneE438" begin="6" end="106" number="1"/>
	<flow id="flow_3-11_c" from="gneE480" to="gneE442" begin="6" end="106" number="1"/>
	<flow id="flow_3-12_c" from="gneE480" to="-gneE445" begin="6" end="106" number="1"/>
	<flow id="flow_3-13_c" from="gneE480" to="gneE448" begin="6" end="106" number="1"/>
	<flow id="flow_3-14_c" from="gneE480" to="gneE452" begin="6" end="106" number="1"/>
	<flow id="flow_3-15_c" from="gneE480" to="gneE453" begin="6" end="106" number="1"/>
	<flow id="flow_3-16_c" from="gneE480" to="gneE458" begin="6" end="106" number="1"/>
	<flow id="flow_3-17_c" from="gneE480" to="gneE462" begin="6" end="106" number="1"/>
	
	<flow id="flow_4-1_c" from="gneE479" to="gneE483" begin="6" end="106" number="1"/>
	<flow id="flow_4-2_c" from="gneE479" to="-gneE481" begin="6" end="106" number="1"/>
	<flow id="flow_4-3_c" from="gneE479" to="-gneE480" begin="6" end="106" number="1"/>
	<flow id="flow_4-5_c" from="gneE479" to="-gneE478" begin="6" end="106" number="1"/>
	<flow id="flow_4-6_c" from="gneE479" to="gneE16" begin="6" end="106" number="1"/>
	<flow id="flow_4-7_c" from="gneE479" to="gneE430" begin="6" end="106" number="1"/>
	<flow id="flow_4-8_c" from="gneE479" to="gneE429" begin="6" end="106" number="1"/>
	<flow id="flow_4-9_c" from="gneE479" to="gneE436" begin="6" end="106" number="1"/>
	<flow id="flow_4-10_c" from="gneE479" to="gneE438" begin="6" end="106" number="1"/>
	<flow id="flow_4-11_c" from="gneE479" to="gneE442" begin="6" end="106" number="1"/>
	<flow id="flow_4-12_c" from="gneE479" to="-gneE445" begin="6" end="106" number="1"/>
	<flow id="flow_4-13_c" from="gneE479" to="gneE448" begin="6" end="106" number="1"/>
	<flow id="flow_4-14_c" from="gneE479" to="gneE452" begin="6" end="106" number="1"/>
	<flow id="flow_4-15_c" from="gneE479" to="gneE453" begin="6" end="106" number="1"/>
	<flow id="flow_4-16_c" from="gneE479" to="gneE458" begin="6" end="106" number="1"/>
	<flow id="flow_4-17_c" from="gneE479" to="gneE462" begin="6" end="106" number="1"/>
	
	<flow id="flow_5-1_c" from="gneE478" to="gneE483" begin="6" end="106" number="1"/>
	<flow id="flow_5-2_c" from="gneE478" to="-gneE481" begin="6" end="106" number="1"/>
	<flow id="flow_5-3_c" from="gneE478" to="-gneE480" begin="6" end="106" number="1"/>
	<flow id="flow_5-4_c" from="gneE478" to="-gneE479" begin="6" end="106" number="1"/>
	<flow id="flow_5-6_c" from="gneE478" to="gneE16" begin="6" end="106" number="1"/>
	<flow id="flow_5-7_c" from="gneE478" to="gneE430" begin="6" end="106" number="1"/>
	<flow id="flow_5-8_c" from="gneE478" to="gneE429" begin="6" end="106" number="1"/>
	<flow id="flow_5-9_c" from="gneE478" to="gneE436" begin="6" end="106" number="1"/>
	<flow id="flow_5-10_c" from="gneE478" to="gneE438" begin="6" end="106" number="1"/>
	<flow id="flow_5-11_c" from="gneE478" to="gneE442" begin="6" end="106" number="1"/>
	<flow id="flow_5-12_c" from="gneE478" to="-gneE445" begin="6" end="106" number="1"/>
	<flow id="flow_5-13_c" from="gneE478" to="gneE448" begin="6" end="106" number="1"/>
	<flow id="flow_5-14_c" from="gneE478" to="gneE452" begin="6" end="106" number="1"/>
	<flow id="flow_5-15_c" from="gneE478" to="gneE453" begin="6" end="106" number="1"/>
	<flow id="flow_5-16_c" from="gneE478" to="gneE458" begin="6" end="106" number="1"/>
	<flow id="flow_5-17_c" from="gneE478" to="gneE462" begin="6" end="106" number="1"/>
	
	<flow id="flow_7-1_c" from="-gneE430" to="gneE483" begin="6" end="106" number="1"/>
	<flow id="flow_7-2_c" from="-gneE430" to="-gneE481" begin="6" end="106" number="1"/>
	<flow id="flow_7-3_c" from="-gneE430" to="-gneE480" begin="6" end="106" number="1"/>
	<flow id="flow_7-4_c" from="-gneE430" to="-gneE479" begin="6" end="106" number="1"/>
	<flow id="flow_7-6_c" from="-gneE430" to="gneE16" begin="6" end="106" number="1"/>
	<flow id="flow_7-5_c" from="-gneE430" to="-gneE478" begin="6" end="106" number="1"/>
	<flow id="flow_7-8_c" from="-gneE430" to="gneE429" begin="6" end="106" number="1"/>
	<flow id="flow_7-9_c" from="-gneE430" to="gneE436" begin="6" end="106" number="1"/>
	<flow id="flow_7-10_c" from="-gneE430" to="gneE438" begin="6" end="106" number="1"/>
	<flow id="flow_7-11_c" from="-gneE430" to="gneE442" begin="6" end="106" number="1"/>
	<flow id="flow_7-12_c" from="-gneE430" to="-gneE445" begin="6" end="106" number="1"/>
	<flow id="flow_7-13_c" from="-gneE430" to="gneE448" begin="6" end="106" number="1"/>
	<flow id="flow_7-14_c" from="-gneE430" to="gneE452" begin="6" end="106" number="1"/>
	<flow id="flow_7-15_c" from="-gneE430" to="gneE453" begin="6" end="106" number="1"/>
	<flow id="flow_7-16_c" from="-gneE430" to="gneE458" begin="6" end="106" number="1"/>
	<flow id="flow_7-17_c" from="-gneE430" to="gneE462" begin="6" end="106" number="1"/>
	
	<flow id="flow_8-1_c" from="-gneE429" to="gneE483" begin="6" end="106" number="1"/>
	<flow id="flow_8-2_c" from="-gneE429" to="-gneE481" begin="6" end="106" number="1"/>
	<flow id="flow_8-3_c" from="-gneE429" to="-gneE480" begin="6" end="106" number="1"/>
	<flow id="flow_8-4_c" from="-gneE429" to="-gneE479" begin="6" end="106" number="1"/>
	<flow id="flow_8-6_c" from="-gneE429" to="gneE16" begin="6" end="106" number="1"/>
	<flow id="flow_8-5_c" from="-gneE429" to="-gneE478" begin="6" end="106" number="1"/>
	<flow id="flow_8-7_c" from="-gneE429" to="gneE430" begin="6" end="106" number="1"/>
	<flow id="flow_8-9_c" from="-gneE429" to="gneE436" begin="6" end="106" number="1"/>
	<flow id="flow_8-10_c" from="-gneE429" to="gneE438" begin="6" end="106" number="1"/>
	<flow id="flow_8-11_c" from="-gneE429" to="gneE442" begin="6" end="106" number="1"/>
	<flow id="flow_8-12_c" from="-gneE429" to="-gneE445" begin="6" end="106" number="1"/>
	<flow id="flow_8-13_c" from="-gneE429" to="gneE448" begin="6" end="106" number="1"/>
	<flow id="flow_8-14_c" from="-gneE429" to="gneE452" begin="6" end="106" number="1"/>
	<flow id="flow_8-15_c" from="-gneE429" to="gneE453" begin="6" end="106" number="1"/>
	<flow id="flow_8-16_c" from="-gneE429" to="gneE458" begin="6" end="106" number="1"/>
	<flow id="flow_8-17_c" from="-gneE429" to="gneE462" begin="6" end="106" number="1"/>

</routes>