<?xml version="1.0" encoding="UTF-8"?>

<!-- generated on Thu  6 Apr 21:09:48 2017 by Netedit Version 0.28.0
<?xml version="1.0" encoding="UTF-8"?>

<configuration xmlns:xsi="http://www.w3.org/2001/XMLSchema-instance" xsi:noNamespaceSchemaLocation="http://sumo.dlr.de/xsd/netedit.exeConfiguration.xsd">

    <input>
        <sumo-net-file value="/Users/gabrielletlim/Documents/ECOLE/CEGEP/SESSION4/PROGRAMMATION/Fichier%20XML%20à%20classer/CentreVilleMtl.net.xml"/>
    </input>

    <output>
        <output-file value="/Users/gabrielletlim/Desktop/CentreVilleMtl.net.xml"/>
        <plain-output-prefix value="/Users/gabrielletlim/Desktop/CentreVilleMtl"/>
    </output>

    <processing>
        <no-turnarounds value="true"/>
        <offset.disable-normalization value="true"/>
        <lefthand value="false"/>
        <junctions.corner-detail value="0"/>
    </processing>

</configuration>
-->

<edges version="0.27" xmlns:xsi="http://www.w3.org/2001/XMLSchema-instance" xsi:noNamespaceSchemaLocation="http://sumo.dlr.de/xsd/edges_file.xsd">
    <edge id="-gneE429" from="ext8" to="gneJ14" priority="1" numLanes="1" speed="13.89"/>
    <edge id="-gneE430" from="ext7" to="gneJ14" priority="1" numLanes="1" speed="13.89"/>
    <edge id="-gneE431" from="gneJ36" to="gneJ14" priority="1" numLanes="1" speed="13.89"/>
    <edge id="-gneE432" from="gneJ14" to="gneJ13" priority="1" numLanes="1" speed="13.89"/>
    <edge id="-gneE433" from="gneJ37" to="gneJ36" priority="1" numLanes="1" speed="13.89"/>
    <edge id="-gneE434" from="gneJ55" to="gneJ37" priority="1" numLanes="1" speed="13.89"/>
    <edge id="-gneE435" from="gneJ56" to="gneJ55" priority="1" numLanes="1" speed="13.89"/>
    <edge id="-gneE436" from="ext9" to="gneJ55" priority="1" numLanes="1" speed="13.89"/>
    <edge id="-gneE437" from="gneJ63" to="gneJ56" priority="1" numLanes="1" speed="13.89"/>
    <edge id="-gneE438" from="ext10" to="gneJ63" priority="1" numLanes="1" speed="13.89"/>
    <edge id="-gneE439" from="gneJ141" to="gneJ63" priority="1" numLanes="1" speed="13.89"/>
    <edge id="-gneE440" from="gneJ143" to="gneJ141" priority="1" numLanes="1" speed="13.89"/>
    <edge id="-gneE441" from="gneJ144" to="gneJ143" priority="1" numLanes="1" speed="13.89"/>
    <edge id="-gneE442" from="ext11" to="gneJ144" priority="1" numLanes="1" speed="13.89"/>
    <edge id="-gneE443" from="gneJ167" to="gneJ144" priority="1" numLanes="1" speed="13.89"/>
    <edge id="-gneE444" from="gneJ170" to="gneJ167" priority="1" numLanes="1" speed="13.89"/>
    <edge id="-gneE445" from="gneJ170" to="ext12" priority="1" numLanes="1" speed="13.89"/>
    <edge id="-gneE446" from="gneJ249" to="gneJ170" priority="1" numLanes="1" speed="13.89"/>
    <edge id="-gneE447" from="gneJ247" to="gneJ249" priority="1" numLanes="1" speed="13.89"/>
    <edge id="-gneE448" from="ext13" to="gneJ247" priority="1" numLanes="1" speed="13.89"/>
    <edge id="-gneE449" from="gneJ245" to="gneJ247" priority="1" numLanes="1" speed="13.89"/>
    <edge id="-gneE450" from="gneJ242" to="gneJ245" priority="1" numLanes="1" speed="13.89"/>
    <edge id="-gneE451" from="gneJ235" to="gneJ242" priority="1" numLanes="1" speed="13.89"/>
    <edge id="-gneE452" from="ext14" to="gneJ245" priority="1" numLanes="1" speed="13.89"/>
    <edge id="-gneE453" from="ext15" to="gneJ235" priority="1" numLanes="1" speed="13.89"/>
    <edge id="-gneE454" from="gneJ234" to="gneJ235" priority="1" numLanes="1" speed="13.89"/>
    <edge id="-gneE455" from="gneJ231" to="gneJ234" priority="1" numLanes="1" speed="13.89"/>
    <edge id="-gneE456" from="gneJ231" to="gneJ233" priority="1" numLanes="1" speed="13.89"/>
    <edge id="-gneE457" from="gneJ234" to="gneJ237" priority="1" numLanes="1" speed="13.89"/>
    <edge id="-gneE458" from="gneJ258" to="gneJ237" priority="1" numLanes="1" speed="13.89"/>
    <edge id="-gneE459" from="gneJ238" to="gneJ237" priority="1" numLanes="1" speed="13.89"/>
    <edge id="-gneE460" from="gneJ240" to="gneJ238" priority="1" numLanes="1" speed="13.89"/>
    <edge id="-gneE461" from="gneJ240" to="gneJ241" priority="1" numLanes="1" speed="13.89"/>
    <edge id="-gneE462" from="ext17" to="gneJ241" priority="1" numLanes="1" speed="13.89"/>
    <edge id="-gneE463" from="gneJ211" to="gneJ241" priority="1" numLanes="1" speed="13.89"/>
    <edge id="-gneE464" from="gneJ205" to="gneJ211" priority="1" numLanes="1" speed="13.89"/>
    <edge id="-gneE465" from="gneJ202" to="gneJ205" priority="1" numLanes="1" speed="13.89"/>
    <edge id="-gneE466" from="gneJ157" to="gneJ202" priority="1" numLanes="1" speed="13.89"/>
    <edge id="-gneE469" from="gneJ105" to="gneJ102" priority="1" numLanes="1" speed="13.89"/>
    <edge id="-gneE470" from="gneJ88" to="gneJ102" priority="1" numLanes="1" speed="13.89"/>
    <edge id="-gneE471" from="gneJ20" to="gneJ1" priority="1" numLanes="1" speed="13.89"/>
    <edge id="-gneE474" from="gneJ21" to="gneJ20" priority="1" numLanes="1" speed="13.89"/>
    <edge id="-gneE475" from="gneJ45" to="gneJ21" priority="1" numLanes="1" speed="13.89"/>
    <edge id="-gneE476" from="gneJ46" to="gneJ45" priority="1" numLanes="1" speed="13.89"/>
    <edge id="-gneE477" from="gneJ88" to="gneJ46" priority="1" numLanes="1" speed="13.89"/>
    <edge id="-gneE478" from="gneJ11" to="ext5" priority="1" numLanes="1" speed="13.89"/>
    <edge id="-gneE479" from="gneJ6" to="ext4" priority="1" numLanes="1" speed="13.89"/>
    <edge id="-gneE480" from="gneJ4" to="ext3" priority="1" numLanes="1" speed="13.89"/>
    <edge id="-gneE481" from="gneJ2" to="ext2" priority="1" numLanes="1" speed="13.89"/>
    <edge id="-gneE482" from="gneJ1" to="gneJ2" priority="1" numLanes="1" speed="13.89"/>
    <edge id="-gneE483" from="ext1" to="gneJ1" priority="1" numLanes="1" speed="13.89"/>
    <edge id="-gneE484" from="gneJ19" to="gneJ20" priority="1" numLanes="1" speed="13.89"/>
    <edge id="-gneE485" from="gneJ18" to="gneJ19" priority="1" numLanes="1" speed="13.89"/>
    <edge id="-gneE486" from="gneJ4" to="gneJ2" priority="1" numLanes="1" speed="13.89"/>
    <edge id="-gneE487" from="gneJ6" to="gneJ4" priority="1" numLanes="1" speed="13.89"/>
    <edge id="-gneE488" from="gneJ10" to="gneJ18" priority="1" numLanes="1" speed="13.89"/>
    <edge id="-gneE489" from="gneJ9" to="gneJ10" priority="1" numLanes="1" speed="13.89"/>
    <edge id="-gneE490" from="gneJ8" to="gneJ6" priority="1" numLanes="1" speed="13.89"/>
    <edge id="-gneE491" from="gneJ11" to="gneJ8" priority="1" numLanes="1" speed="13.89"/>
    <edge id="-gneE493" from="gneJ26" to="gneJ9" priority="1" numLanes="1" speed="13.89"/>
    <edge id="-gneE494" from="gneJ27" to="gneJ26" priority="1" numLanes="1" speed="13.89"/>
    <edge id="-gneE495" from="gneJ12" to="gneJ11" priority="1" numLanes="1" speed="13.89"/>
    <edge id="-gneE496" from="gneJ13" to="gneJ12" priority="1" numLanes="1" speed="13.89"/>
    <edge id="-gneE497" from="gneJ35" to="gneJ27" priority="1" numLanes="1" speed="13.89"/>
    <edge id="-gneE499" from="gneJ36" to="gneJ35" priority="1" numLanes="1" speed="13.89"/>
    <edge id="-gneE500" from="gneJ27" to="gneJ12" priority="1" numLanes="1" speed="13.89"/>
    <edge id="-gneE501" from="gneJ26" to="gneJ11" priority="1" numLanes="1" speed="13.89"/>
    <edge id="-gneE502" from="gneJ9" to="gneJ8" priority="1" numLanes="1" speed="13.89"/>
    <edge id="-gneE503" from="gneJ10" to="gneJ6" priority="1" numLanes="1" speed="13.89"/>
    <edge id="-gneE504" from="gneJ18" to="gneJ4" priority="1" numLanes="1" speed="13.89"/>
    <edge id="-gneE505" from="gneJ19" to="gneJ2" priority="1" numLanes="1" speed="13.89"/>
    <edge id="-gneE507" from="gneJ22" to="gneJ19" priority="1" numLanes="1" speed="13.89"/>
    <edge id="-gneE508" from="gneJ23" to="gneJ18" priority="1" numLanes="1" speed="13.89"/>
    <edge id="-gneE509" from="gneJ24" to="gneJ10" priority="1" numLanes="1" speed="13.89"/>
    <edge id="-gneE510" from="gneJ25" to="gneJ9" priority="1" numLanes="1" speed="13.89"/>
    <edge id="-gneE511" from="gneJ30" to="gneJ26" priority="1" numLanes="1" speed="13.89"/>
    <edge id="-gneE512" from="gneJ32" to="gneJ27" priority="1" numLanes="1" speed="13.89"/>
    <edge id="-gneE513" from="gneJ37" to="gneJ35" priority="1" numLanes="1" speed="13.89"/>
    <edge id="-gneE514" from="gneJ22" to="gneJ21" priority="1" numLanes="1" speed="13.89"/>
    <edge id="-gneE515" from="gneJ23" to="gneJ22" priority="1" numLanes="1" speed="13.89"/>
    <edge id="-gneE516" from="gneJ40" to="gneJ23" priority="1" numLanes="1" speed="13.89"/>
    <edge id="-gneE517" from="gneJ24" to="gneJ40" priority="1" numLanes="1" speed="13.89"/>
    <edge id="-gneE518" from="gneJ25" to="gneJ24" priority="1" numLanes="1" speed="13.89"/>
    <edge id="-gneE519" from="gneJ32" to="gneJ30" priority="1" numLanes="1" speed="13.89"/>
    <edge id="-gneE520" from="gneJ34" to="gneJ32" priority="1" numLanes="1" speed="13.89"/>
    <edge id="-gneE521" from="gneJ33" to="gneJ30" priority="1" numLanes="1" speed="13.89"/>
    <edge id="-gneE522" from="gneJ34" to="gneJ33" priority="1" numLanes="1" speed="13.89"/>
    <edge id="-gneE524" from="gneJ37" to="gneJ34" priority="1" numLanes="1" speed="13.89"/>
    <edge id="-gneE526" from="gneJ55" to="gneJ54" priority="1" numLanes="1" speed="13.89"/>
    <edge id="-gneE527" from="gneJ33" to="gneJ38" priority="1" numLanes="1" speed="13.89"/>
    <edge id="-gneE528" from="gneJ38" to="gneJ25" priority="1" numLanes="1" speed="13.89"/>
    <edge id="-gneE529" from="gneJ38" to="gneJ39" priority="1" numLanes="1" speed="13.89"/>
    <edge id="-gneE530" from="gneJ39" to="gneJ24" priority="1" numLanes="1" speed="13.89"/>
    <edge id="-gneE531" from="gneJ39" to="gneJ42" priority="1" numLanes="1" speed="13.89"/>
    <edge id="-gneE532" from="gneJ42" to="gneJ40" priority="1" numLanes="1" speed="13.89"/>
    <edge id="-gneE533" from="gneJ42" to="gneJ43" priority="1" numLanes="1" speed="13.89"/>
    <edge id="-gneE534" from="gneJ43" to="gneJ23" priority="1" numLanes="1" speed="13.89"/>
    <edge id="-gneE536" from="gneJ44" to="gneJ22" priority="1" numLanes="1" speed="13.89"/>
    <edge id="-gneE537" from="gneJ44" to="gneJ45" priority="1" numLanes="1" speed="13.89"/>
    <edge id="-gneE538" from="gneJ43" to="gneJ44" priority="1" numLanes="1" speed="13.89"/>
    <edge id="-gneE539" from="gneJ47" to="gneJ44" priority="1" numLanes="1" speed="13.89"/>
    <edge id="-gneE541" from="gneJ48" to="gneJ43" priority="1" numLanes="1" speed="13.89"/>
    <edge id="-gneE542" from="gneJ42" to="gneJ50" priority="1" numLanes="1" speed="13.89"/>
    <edge id="-gneE543" from="gneJ50" to="gneJ48" priority="1" numLanes="1" speed="13.89"/>
    <edge id="-gneE544" from="gneJ51" to="gneJ50" priority="1" numLanes="1" speed="13.89"/>
    <edge id="-gneE545" from="gneJ51" to="gneJ39" priority="1" numLanes="1" speed="13.89"/>
    <edge id="-gneE546" from="gneJ52" to="gneJ51" priority="1" numLanes="1" speed="13.89"/>
    <edge id="-gneE547" from="gneJ52" to="gneJ38" priority="1" numLanes="1" speed="13.89"/>
    <edge id="-gneE548" from="gneJ53" to="gneJ52" priority="1" numLanes="1" speed="13.89"/>
    <edge id="-gneE549" from="gneJ53" to="gneJ33" priority="1" numLanes="1" speed="13.89"/>
    <edge id="-gneE550" from="gneJ54" to="gneJ53" priority="1" numLanes="1" speed="13.89"/>
    <edge id="-gneE551" from="gneJ54" to="gneJ34" priority="1" numLanes="1" speed="13.89"/>
    <edge id="-gneE552" from="gneJ47" to="gneJ46" priority="1" numLanes="1" speed="13.89"/>
    <edge id="-gneE553" from="gneJ48" to="gneJ47" priority="1" numLanes="1" speed="13.89"/>
    <edge id="-gneE554" from="gneJ87" to="gneJ47" priority="1" numLanes="1" speed="13.89"/>
    <edge id="-gneE555" from="gneJ86" to="gneJ48" priority="1" numLanes="1" speed="13.89"/>
    <edge id="-gneE556" from="gneJ71" to="gneJ51" priority="1" numLanes="1" speed="13.89"/>
    <edge id="-gneE557" from="gneJ68" to="gneJ52" priority="1" numLanes="1" speed="13.89"/>
    <edge id="-gneE558" from="gneJ64" to="gneJ53" priority="1" numLanes="1" speed="13.89"/>
    <edge id="-gneE559" from="gneJ59" to="gneJ54" priority="1" numLanes="1" speed="13.89"/>
    <edge id="-gneE560" from="gneJ59" to="gneJ64" priority="1" numLanes="1" speed="13.89"/>
    <edge id="-gneE561" from="gneJ67" to="gneJ64" priority="1" numLanes="1" speed="13.89"/>
    <edge id="-gneE562" from="gneJ66" to="gneJ67" priority="1" numLanes="1" speed="13.89"/>
    <edge id="-gneE563" from="gneJ66" to="gneJ59" priority="1" numLanes="1" speed="13.89"/>
    <edge id="-gneE567" from="gneJ277" to="gneJ59" priority="1" numLanes="1" speed="13.89"/>
    <edge id="-gneE568" from="gneJ57" to="gneJ277" priority="1" numLanes="1" speed="13.89"/>
    <edge id="-gneE569" from="gneJ56" to="gneJ57" priority="1" numLanes="1" speed="13.89"/>
    <edge id="-gneE570" from="gneJ61" to="gneJ57" priority="1" numLanes="1" speed="13.89"/>
    <edge id="-gneE571" from="gneJ61" to="gneJ62" priority="1" numLanes="1" speed="13.89"/>
    <edge id="-gneE572" from="gneJ62" to="gneJ66" priority="1" numLanes="1" speed="13.89"/>
    <edge id="-gneE573" from="gneJ62" to="gneJ108" priority="1" numLanes="1" speed="13.89"/>
    <edge id="-gneE574" from="gneJ109" to="gneJ62" priority="1" numLanes="1" speed="13.89"/>
    <edge id="-gneE575" from="gneJ107" to="gneJ108" priority="1" numLanes="1" speed="13.89"/>
    <edge id="-gneE576" from="gneJ108" to="gneJ67" priority="1" numLanes="1" speed="13.89"/>
    <edge id="-gneE578" from="gneJ68" to="gneJ67" priority="1" numLanes="1" speed="13.89"/>
    <edge id="-gneE580" from="gneJ279" to="gneJ68" priority="1" numLanes="1" speed="13.89"/>
    <edge id="-gneE582" from="gneJ71" to="gneJ279" priority="1" numLanes="1" speed="13.89"/>
    <edge id="-gneE583" from="gneJ106" to="gneJ68" priority="1" numLanes="1" speed="13.89"/>
    <edge id="-gneE584" from="gneJ74" to="gneJ71" priority="1" numLanes="1" speed="13.89"/>
    <edge id="-gneE585" from="gneJ75" to="gneJ71" priority="1" numLanes="1" speed="13.89"/>
    <edge id="-gneE586" from="gneJ77" to="gneJ75" priority="1" numLanes="1" speed="13.89"/>
    <edge id="-gneE588" from="gneJ81" to="gneJ77" priority="1" numLanes="1" speed="13.89"/>
    <edge id="-gneE589" from="gneJ96" to="gneJ86" priority="1" numLanes="1" speed="13.89"/>
    <edge id="-gneE590" from="gneJ97" to="gneJ87" priority="1" numLanes="1" speed="13.89"/>
    <edge id="-gneE591" from="gneJ98" to="gneJ87" priority="1" numLanes="1" speed="13.89"/>
    <edge id="-gneE592" from="gneJ101" to="gneJ98" priority="1" numLanes="1" speed="13.89"/>
    <edge id="-gneE593" from="gneJ103" to="gneJ101" priority="1" numLanes="1" speed="13.89"/>
    <edge id="-gneE594" from="gneJ103" to="gneJ105" priority="1" numLanes="1" speed="13.89"/>
    <edge id="-gneE595" from="gneJ97" to="gneJ103" priority="1" numLanes="1" speed="13.89"/>
    <edge id="-gneE596" from="gneJ96" to="gneJ97" priority="1" numLanes="1" speed="13.89"/>
    <edge id="-gneE597" from="gneJ74" to="gneJ81" priority="1" numLanes="1" speed="13.89"/>
    <edge id="-gneE599" from="gneJ109" to="gneJ107" priority="1" numLanes="1" speed="13.89"/>
    <edge id="-gneE600" from="gneJ63" to="gneJ109" priority="1" numLanes="1" speed="13.89"/>
    <edge id="-gneE601" from="gneJ96" to="gneJ81" priority="1" numLanes="1" speed="13.89"/>
    <edge id="-gneE602" from="gneJ74" to="gneJ106" priority="1" numLanes="1" speed="13.89"/>
    <edge id="-gneE603" from="gneJ281" to="gneJ106" priority="1" numLanes="1" speed="13.89"/>
    <edge id="-gneE604" from="gneJ107" to="gneJ281" priority="1" numLanes="1" speed="13.89"/>
    <edge id="-gneE605" from="gneJ137" to="gneJ281" priority="1" numLanes="1" speed="13.89"/>
    <edge id="-gneE606" from="gneJ118" to="gneJ103" priority="1" numLanes="1" speed="13.89"/>
    <edge id="-gneE607" from="gneJ282" to="gneJ105" priority="1" numLanes="1" speed="13.89"/>
    <edge id="-gneE608" from="gneJ157" to="gneJ282" priority="1" numLanes="1" speed="13.89"/>
    <edge id="-gneE609" from="gneJ118" to="gneJ282" priority="1" numLanes="1" speed="13.89"/>
    <edge id="-gneE610" from="gneJ283" to="gneJ97" priority="1" numLanes="1" speed="13.89"/>
    <edge id="-gneE612" from="gneJ153" to="gneJ283" priority="1" numLanes="1" speed="13.89"/>
    <edge id="-gneE613" from="gneJ118" to="gneJ283" priority="1" numLanes="1" speed="13.89"/>
    <edge id="-gneE614" from="gneJ284" to="gneJ96" priority="1" numLanes="1" speed="13.89"/>
    <edge id="-gneE616" from="gneJ283" to="gneJ284" priority="1" numLanes="1" speed="13.89"/>
    <edge id="-gneE617" from="gneJ154" to="gneJ284" priority="1" numLanes="1" speed="13.89"/>
    <edge id="-gneE618" from="gneJ154" to="gneJ153" priority="1" numLanes="1" speed="13.89"/>
    <edge id="-gneE620" from="gneJ285" to="gneJ284" priority="1" numLanes="1" speed="13.89"/>
    <edge id="-gneE621" from="gneJ81" to="gneJ285" priority="1" numLanes="1" speed="13.89"/>
    <edge id="-gneE622" from="gneJ151" to="gneJ285" priority="1" numLanes="1" speed="13.89"/>
    <edge id="-gneE623" from="gneJ286" to="gneJ154" priority="1" numLanes="1" speed="13.89"/>
    <edge id="-gneE624" from="gneJ151" to="gneJ286" priority="1" numLanes="1" speed="13.89"/>
    <edge id="-gneE625" from="gneJ190" to="gneJ286" priority="1" numLanes="1" speed="13.89"/>
    <edge id="-gneE627" from="gneJ150" to="gneJ151" priority="1" numLanes="1" speed="13.89"/>
    <edge id="-gneE628" from="gneJ287" to="gneJ74" priority="1" numLanes="1" speed="13.89"/>
    <edge id="-gneE629" from="gneJ150" to="gneJ287" priority="1" numLanes="1" speed="13.89"/>
    <edge id="-gneE630" from="gneJ133" to="gneJ287" priority="1" numLanes="1" speed="13.89"/>
    <edge id="-gneE631" from="gneJ148" to="gneJ133" priority="1" numLanes="1" speed="13.89"/>
    <edge id="-gneE632" from="gneJ134" to="gneJ148" priority="1" numLanes="1" speed="13.89"/>
    <edge id="-gneE633" from="gneJ288" to="gneJ150" priority="1" numLanes="1" speed="13.89"/>
    <edge id="-gneE634" from="gneJ148" to="gneJ288" priority="1" numLanes="1" speed="13.89"/>
    <edge id="-gneE635" from="gneJ286" to="gneJ288" priority="1" numLanes="1" speed="13.89"/>
    <edge id="-gneE636" from="gneJ134" to="gneJ106" priority="1" numLanes="1" speed="13.89"/>
    <edge id="-gneE638" from="gneJ137" to="gneJ289" priority="1" numLanes="1" speed="13.89"/>
    <edge id="-gneE641" from="gneJ289" to="gneJ139" priority="1" numLanes="1" speed="13.89"/>
    <edge id="-gneE642" from="gneJ107" to="gneJ289" priority="1" numLanes="1" speed="13.89"/>
    <edge id="-gneE643" from="gneJ142" to="gneJ140" priority="1" numLanes="1" speed="13.89"/>
    <edge id="-gneE644" from="gneJ141" to="gneJ140" priority="1" numLanes="1" speed="13.89"/>
    <edge id="-gneE646" from="gneJ139" to="gneJ142" priority="1" numLanes="1" speed="13.89"/>
    <edge id="-gneE647" from="gneJ143" to="gneJ142" priority="1" numLanes="1" speed="13.89"/>
    <edge id="-gneE648" from="gneJ145" to="gneJ139" priority="1" numLanes="1" speed="13.89"/>
    <edge id="-gneE649" from="gneJ144" to="gneJ145" priority="1" numLanes="1" speed="13.89"/>
    <edge id="-gneE650" from="gneJ168" to="gneJ145" priority="1" numLanes="1" speed="13.89"/>
    <edge id="-gneE651" from="gneJ169" to="gneJ168" priority="1" numLanes="1" speed="13.89"/>
    <edge id="-gneE652" from="gneJ167" to="gneJ168" priority="1" numLanes="1" speed="13.89"/>
    <edge id="-gneE653" from="gneJ250" to="gneJ169" priority="1" numLanes="1" speed="13.89"/>
    <edge id="-gneE654" from="gneJ170" to="gneJ250" priority="1" numLanes="1" speed="13.89"/>
    <edge id="-gneE655" from="gneJ248" to="gneJ250" priority="1" numLanes="1" speed="13.89"/>
    <edge id="-gneE656" from="gneJ249" to="gneJ248" priority="1" numLanes="1" speed="13.89"/>
    <edge id="-gneE657" from="gneJ244" to="gneJ248" priority="1" numLanes="1" speed="13.89"/>
    <edge id="-gneE658" from="gneJ244" to="gneJ243" priority="1" numLanes="1" speed="13.89"/>
    <edge id="-gneE659" from="gneJ242" to="gneJ243" priority="1" numLanes="1" speed="13.89"/>
    <edge id="-gneE660" from="gneJ245" to="gneJ244" priority="1" numLanes="1" speed="13.89"/>
    <edge id="-gneE662" from="gneJ292" to="gneJ118" priority="1" numLanes="1" speed="13.89"/>
    <edge id="-gneE663" from="gneJ155" to="gneJ292" priority="1" numLanes="1" speed="13.89"/>
    <edge id="-gneE664" from="gneJ157" to="gneJ292" priority="1" numLanes="1" speed="13.89"/>
    <edge id="-gneE665" from="gneJ196" to="gneJ292" priority="1" numLanes="1" speed="13.89"/>
    <edge id="-gneE666" from="gneJ195" to="gneJ155" priority="1" numLanes="1" speed="13.89"/>
    <edge id="-gneE667" from="gneJ191" to="gneJ195" priority="1" numLanes="1" speed="13.89"/>
    <edge id="-gneE668" from="gneJ197" to="gneJ196" priority="1" numLanes="1" speed="13.89"/>
    <edge id="-gneE669" from="gneJ197" to="gneJ202" priority="1" numLanes="1" speed="13.89"/>
    <edge id="-gneE670" from="gneJ191" to="gneJ197" priority="1" numLanes="1" speed="13.89"/>
    <edge id="-gneE671" from="gneJ200" to="gneJ191" priority="1" numLanes="1" speed="13.89"/>
    <edge id="-gneE672" from="gneJ201" to="gneJ197" priority="1" numLanes="1" speed="13.89"/>
    <edge id="-gneE673" from="gneJ192" to="gneJ191" priority="1" numLanes="1" speed="13.89"/>
    <edge id="-gneE674" from="gneJ190" to="gneJ192" priority="1" numLanes="1" speed="13.89"/>
    <edge id="-gneE675" from="gneJ193" to="gneJ192" priority="1" numLanes="1" speed="13.89"/>
    <edge id="-gneE677" from="gneJ200" to="gneJ201" priority="1" numLanes="1" speed="13.89"/>
    <edge id="-gneE679" from="gneJ198" to="gneJ201" priority="1" numLanes="1" speed="13.89"/>
    <edge id="-gneE680" from="gneJ293" to="gneJ201" priority="1" numLanes="1" speed="13.89"/>
    <edge id="-gneE681" from="gneJ205" to="gneJ293" priority="1" numLanes="1" speed="13.89"/>
    <edge id="-gneE682" from="gneJ198" to="gneJ293" priority="1" numLanes="1" speed="13.89"/>
    <edge id="-gneE684" from="gneJ294" to="gneJ200" priority="1" numLanes="1" speed="13.89"/>
    <edge id="-gneE685" from="gneJ198" to="gneJ294" priority="1" numLanes="1" speed="13.89"/>
    <edge id="-gneE686" from="gneJ193" to="gneJ294" priority="1" numLanes="1" speed="13.89"/>
    <edge id="-gneE687" from="gneJ214" to="gneJ294" priority="1" numLanes="1" speed="13.89"/>
    <edge id="-gneE688" from="gneJ212" to="gneJ198" priority="1" numLanes="1" speed="13.89"/>
    <edge id="-gneE689" from="gneJ212" to="gneJ211" priority="1" numLanes="1" speed="13.89"/>
    <edge id="-gneE690" from="gneJ240" to="gneJ212" priority="1" numLanes="1" speed="13.89"/>
    <edge id="-gneE691" from="gneJ213" to="gneJ212" priority="1" numLanes="1" speed="13.89"/>
    <edge id="-gneE692" from="gneJ238" to="gneJ213" priority="1" numLanes="1" speed="13.89"/>
    <edge id="-gneE694" from="gneJ213" to="gneJ214" priority="1" numLanes="1" speed="13.89"/>
    <edge id="-gneE695" from="gneJ221" to="gneJ213" priority="1" numLanes="1" speed="13.89"/>
    <edge id="-gneE696" from="gneJ296" to="gneJ193" priority="1" numLanes="1" speed="13.89"/>
    <edge id="-gneE697" from="gneJ214" to="gneJ296" priority="1" numLanes="1" speed="13.89"/>
    <edge id="-gneE698" from="gneJ220" to="gneJ296" priority="1" numLanes="1" speed="13.89"/>
    <edge id="-gneE699" from="gneJ193" to="gneJ188" priority="1" numLanes="1" speed="13.89"/>
    <edge id="-gneE700" from="gneJ221" to="gneJ220" priority="1" numLanes="1" speed="13.89"/>
    <edge id="-gneE702" from="gneJ297" to="gneJ188" priority="1" numLanes="1" speed="13.89"/>
    <edge id="-gneE703" from="gneJ183" to="gneJ297" priority="1" numLanes="1" speed="13.89"/>
    <edge id="-gneE704" from="gneJ187" to="gneJ297" priority="1" numLanes="1" speed="13.89"/>
    <edge id="-gneE705" from="gneJ187" to="gneJ190" priority="1" numLanes="1" speed="13.89"/>
    <edge id="-gneE706" from="gneJ298" to="gneJ187" priority="1" numLanes="1" speed="13.89"/>
    <edge id="-gneE707" from="gneJ183" to="gneJ298" priority="1" numLanes="1" speed="13.89"/>
    <edge id="-gneE708" from="gneJ177" to="gneJ298" priority="1" numLanes="1" speed="13.89"/>
    <edge id="-gneE710" from="gneJ179" to="gneJ177" priority="1" numLanes="1" speed="13.89"/>
    <edge id="-gneE711" from="gneJ180" to="gneJ179" priority="1" numLanes="1" speed="13.89"/>
    <edge id="-gneE712" from="gneJ180" to="gneJ183" priority="1" numLanes="1" speed="13.89"/>
    <edge id="-gneE713" from="gneJ177" to="gneJ134" priority="1" numLanes="1" speed="13.89"/>
    <edge id="-gneE715" from="gneJ178" to="gneJ179" priority="1" numLanes="1" speed="13.89"/>
    <edge id="-gneE716" from="gneJ172" to="gneJ180" priority="1" numLanes="1" speed="13.89"/>
    <edge id="-gneE719" from="gneJ176" to="gneJ178" priority="1" numLanes="1" speed="13.89"/>
    <edge id="-gneE720" from="gneJ172" to="gneJ176" priority="1" numLanes="1" speed="13.89"/>
    <edge id="-gneE721" from="gneJ147" to="gneJ137" priority="1" numLanes="1" speed="13.89"/>
    <edge id="-gneE722" from="gneJ300" to="gneJ289" priority="1" numLanes="1" speed="13.89"/>
    <edge id="-gneE723" from="gneJ145" to="gneJ300" priority="1" numLanes="1" speed="13.89"/>
    <edge id="-gneE724" from="gneJ147" to="gneJ300" priority="1" numLanes="1" speed="13.89"/>
    <edge id="-gneE725" from="gneJ173" to="gneJ300" priority="1" numLanes="1" speed="13.89"/>
    <edge id="-gneE726" from="gneJ301" to="gneJ147" priority="1" numLanes="1" speed="13.89"/>
    <edge id="-gneE727" from="gneJ178" to="gneJ301" priority="1" numLanes="1" speed="13.89"/>
    <edge id="-gneE728" from="gneJ177" to="gneJ301" priority="1" numLanes="1" speed="13.89"/>
    <edge id="-gneE729" from="gneJ173" to="gneJ301" priority="1" numLanes="1" speed="13.89"/>
    <edge id="-gneE730" from="gneJ303" to="gneJ173" priority="1" numLanes="1" speed="13.89"/>
    <edge id="-gneE731" from="gneJ176" to="gneJ303" priority="1" numLanes="1" speed="13.89"/>
    <edge id="-gneE732" from="gneJ171" to="gneJ303" priority="1" numLanes="1" speed="13.89"/>
    <edge id="-gneE733" from="gneJ171" to="gneJ172" priority="1" numLanes="1" speed="13.89"/>
    <edge id="-gneE734" from="gneJ169" to="gneJ171" priority="1" numLanes="1" speed="13.89"/>
    <edge id="-gneE735" from="gneJ304" to="gneJ220" priority="1" numLanes="1" speed="13.89"/>
    <edge id="-gneE736" from="gneJ180" to="gneJ304" priority="1" numLanes="1" speed="13.89"/>
    <edge id="-gneE737" from="gneJ304" to="gneJ223" priority="1" numLanes="1" speed="13.89"/>
    <edge id="-gneE740" from="gneJ305" to="gneJ304" priority="1" numLanes="1" speed="13.89"/>
    <edge id="-gneE741" from="gneJ172" to="gneJ305" priority="1" numLanes="1" speed="13.89"/>
    <edge id="-gneE742" from="gneJ228" to="gneJ305" priority="1" numLanes="1" speed="13.89"/>
    <edge id="-gneE743" from="gneJ228" to="gneJ223" priority="1" numLanes="1" speed="13.89"/>
    <edge id="-gneE744" from="gneJ223" to="gneJ221" priority="1" numLanes="1" speed="13.89"/>
    <edge id="-gneE745" from="gneJ230" to="gneJ223" priority="1" numLanes="1" speed="13.89"/>
    <edge id="-gneE746" from="gneJ231" to="gneJ230" priority="1" numLanes="1" speed="13.89"/>
    <edge id="-gneE747" from="gneJ229" to="gneJ230" priority="1" numLanes="1" speed="13.89"/>
    <edge id="-gneE748" from="gneJ229" to="gneJ228" priority="1" numLanes="1" speed="13.89"/>
    <edge id="-gneE749" from="gneJ232" to="gneJ229" priority="1" numLanes="1" speed="13.89"/>
    <edge id="-gneE750" from="gneJ232" to="gneJ231" priority="1" numLanes="1" speed="13.89"/>
    <edge id="-gneE751" from="gneJ235" to="gneJ232" priority="1" numLanes="1" speed="13.89"/>
    <edge id="-gneE752" from="gneJ237" to="gneJ233" priority="1" numLanes="1" speed="13.89"/>
    <edge id="-gneE753" from="gneJ233" to="gneJ221" priority="1" numLanes="1" speed="13.89"/>
    <edge id="gneE125" from="gneJ75" to="gneJ86" priority="1" numLanes="1" speed="13.89"/>
    <edge id="gneE127" from="gneJ86" to="gneJ87" priority="1" numLanes="1" speed="13.89"/>
    <edge id="gneE142" from="gneJ88" to="gneJ98" priority="1" numLanes="1" speed="13.89"/>
    <edge id="gneE148" from="gneJ102" to="gneJ101" priority="1" numLanes="1" speed="13.89"/>
    <edge id="gneE16" from="gneJ12" to="ext6" priority="1" numLanes="2" speed="13.89"/>
    <edge id="gneE218" from="gneJ134" to="gneJ137" priority="1" numLanes="1" speed="13.89"/>
    <edge id="gneE225" from="gneJ109" to="gneJ140" priority="1" numLanes="1" speed="13.89"/>
    <edge id="gneE254" from="gneJ153" to="gneJ155" priority="1" numLanes="1" speed="13.89"/>
    <edge id="gneE313" from="gneJ190" to="gneJ188" priority="1" numLanes="1" speed="13.89"/>
    <edge id="gneE323" from="gneJ195" to="gneJ196" priority="1" numLanes="1" speed="13.89"/>
    <edge id="gneE367" from="gneJ220" to="gneJ188" priority="1" numLanes="1" speed="13.89"/>
    <edge id="gneE429" from="gneJ14" to="ext8" priority="1" numLanes="1" speed="13.89"/>
    <edge id="gneE430" from="gneJ14" to="ext7" priority="1" numLanes="1" speed="13.89"/>
    <edge id="gneE431" from="gneJ14" to="gneJ36" priority="1" numLanes="1" speed="13.89"/>
    <edge id="gneE432" from="gneJ13" to="gneJ14" priority="1" numLanes="1" speed="13.89"/>
    <edge id="gneE433" from="gneJ36" to="gneJ37" priority="1" numLanes="1" speed="13.89"/>
    <edge id="gneE434" from="gneJ37" to="gneJ55" priority="1" numLanes="1" speed="13.89"/>
    <edge id="gneE435" from="gneJ55" to="gneJ56" priority="1" numLanes="1" speed="13.89"/>
    <edge id="gneE436" from="gneJ55" to="ext9" priority="1" numLanes="1" speed="13.89"/>
    <edge id="gneE437" from="gneJ56" to="gneJ63" priority="1" numLanes="1" speed="13.89"/>
    <edge id="gneE438" from="gneJ63" to="ext10" priority="1" numLanes="1" speed="13.89"/>
    <edge id="gneE439" from="gneJ63" to="gneJ141" priority="1" numLanes="1" speed="13.89"/>
    <edge id="gneE440" from="gneJ141" to="gneJ143" priority="1" numLanes="1" speed="13.89"/>
    <edge id="gneE441" from="gneJ143" to="gneJ144" priority="1" numLanes="1" speed="13.89"/>
    <edge id="gneE442" from="gneJ144" to="ext11" priority="1" numLanes="1" speed="13.89"/>