<?xml version="1.0" encoding="UTF-8"?>

<!-- generated on Thu  6 Apr 21:25:45 2017 by Netedit Version 0.28.0
<?xml version="1.0" encoding="UTF-8"?>

<configuration xmlns:xsi="http://www.w3.org/2001/XMLSchema-instance" xsi:noNamespaceSchemaLocation="http://sumo.dlr.de/xsd/netedit.exeConfiguration.xsd">

    <input>
        <sumo-net-file value="/Users/gabrielletlim/Documents/ECOLE/CEGEP/SESSION4/PROGRAMMATION/Fichier%20XML%20à%20classer/CentreVilleMtl.net.xml"/>
    </input>

    <output>
        <additionals-output value="/Users/gabrielletlim/Desktop/CentreVilleMtlBornes.xml"/>
        <output-file value="/Users/gabrielletlim/Desktop/CentreVilleMtl.net.xml"/>
        <plain-output-prefix value=""/>
    </output>

    <processing>
        <no-turnarounds value="true"/>
        <offset.disable-normalization value="true"/>
        <lefthand value="false"/>
        <junctions.corner-detail value="0"/>
    </processing>

</configuration>
-->

<net version="0.27" xmlns:xsi="http://www.w3.org/2001/XMLSchema-instance" xsi:noNamespaceSchemaLocation="http://sumo.dlr.de/xsd/net_file.xsd">

    <location netOffset="0.00,0.00" convBoundary="0.00,-84.00,322.00,130.61" origBoundary="-10000000000.00,-10000000000.00,10000000000.00,10000000000.00" projParameter="!"/>

    <edge id=":gneJ1_0" function="internal">
        <lane id=":gneJ1_0_0" index="0" speed="13.89" length="9.32" shape="25.02,92.55 15.70,92.38"/>
    </edge>
    <edge id=":gneJ1_1" function="internal">
        <lane id=":gneJ1_1_0" index="0" speed="13.89" length="5.07" shape="25.02,92.55 22.31,92.05 20.37,90.79"/>
    </edge>
    <edge id=":gneJ1_6" function="internal">
        <lane id=":gneJ1_6_0" index="0" speed="13.89" length="5.17" shape="20.37,90.79 19.19,88.76 18.79,85.97"/>
    </edge>
    <edge id=":gneJ1_2" function="internal">
        <lane id=":gneJ1_2_0" index="0" speed="13.89" length="5.08" shape="22.09,85.95 22.29,87.35 22.86,88.37 23.81,89.00 25.14,89.25"/>
    </edge>
    <edge id=":gneJ1_3" function="internal">
        <lane id=":gneJ1_3_0" index="0" speed="13.89" length="10.36" shape="22.09,85.95 21.70,88.76 20.51,90.77 18.51,91.98 15.70,92.38"/>
    </edge>
    <edge id=":gneJ1_4" function="internal">
        <lane id=":gneJ1_4_0" index="0" speed="13.89" length="5.01" shape="15.70,89.08 17.06,88.89 18.03,88.30 18.60,87.33 18.79,85.97"/>
    </edge>
    <edge id=":gneJ1_5" function="internal">
        <lane id=":gneJ1_5_0" index="0" speed="13.89" length="9.44" shape="15.70,89.08 25.14,89.25"/>
    </edge>
    <edge id=":gneJ10_0" function="internal">
        <lane id=":gneJ10_0_0" index="0" speed="13.89" length="5.13" shape="37.32,29.53 35.90,29.56 34.87,30.04 34.24,30.99 34.01,32.40"/>
    </edge>
    <edge id=":gneJ10_1" function="internal">
        <lane id=":gneJ10_1_0" index="0" speed="13.89" length="9.87" shape="37.32,29.53 27.52,28.38"/>
    </edge>
    <edge id=":gneJ10_2" function="internal">
        <lane id=":gneJ10_2_0" index="0" speed="13.89" length="5.43" shape="37.32,29.53 34.44,28.76 32.48,27.31"/>
    </edge>
    <edge id=":gneJ10_12" function="internal">
        <lane id=":gneJ10_12_0" index="0" speed="13.89" length="5.22" shape="32.48,27.31 31.42,25.16 31.28,22.33"/>
    </edge>
    <edge id=":gneJ10_3" function="internal">
        <lane id=":gneJ10_3_0" index="0" speed="13.89" length="5.44" shape="34.56,22.66 34.64,24.07 35.20,25.14 36.23,25.87 37.74,26.26"/>
    </edge>
    <edge id=":gneJ10_4" function="internal">
        <lane id=":gneJ10_4_0" index="0" speed="13.89" length="9.76" shape="34.56,22.66 34.01,32.40"/>
    </edge>
    <edge id=":gneJ10_5" function="internal">
        <lane id=":gneJ10_5_0" index="0" speed="13.89" length="10.36" shape="34.56,22.66 33.89,25.42 32.49,27.29 30.36,28.28 27.52,28.38"/>
    </edge>
    <edge id=":gneJ10_6" function="internal">
        <lane id=":gneJ10_6_0" index="0" speed="13.89" length="5.01" shape="27.88,25.10 29.25,25.05 30.28,24.57 30.95,23.67 31.28,22.33"/>
    </edge>
    <edge id=":gneJ10_7" function="internal">
        <lane id=":gneJ10_7_0" index="0" speed="13.89" length="9.93" shape="27.88,25.10 37.74,26.26"/>
    </edge>
    <edge id=":gneJ10_8" function="internal">
        <lane id=":gneJ10_8_0" index="0" speed="13.89" length="5.35" shape="27.88,25.10 30.60,25.81 32.53,27.26 32.59,27.36"/>
    </edge>
    <edge id=":gneJ10_13" function="internal">
        <lane id=":gneJ10_13_0" index="0" speed="13.89" length="5.32" shape="32.59,27.36 33.67,29.46 34.01,32.40"/>
    </edge>
    <edge id=":gneJ10_9" function="internal">
        <lane id=":gneJ10_9_0" index="0" speed="13.89" length="5.69" shape="30.71,32.34 30.53,30.74 29.94,29.54 28.94,28.76 27.52,28.38"/>
    </edge>
    <edge id=":gneJ10_10" function="internal">
        <lane id=":gneJ10_10_0" index="0" speed="13.89" length="10.03" shape="30.71,32.34 31.28,22.33"/>
    </edge>
    <edge id=":gneJ10_11" function="internal">
        <lane id=":gneJ10_11_0" index="0" speed="13.89" length="10.88" shape="30.71,32.34 31.19,29.35 32.53,27.34 34.71,26.31 37.74,26.26"/>
    </edge>
    <edge id=":gneJ101_0" function="internal">
        <lane id=":gneJ101_0_0" index="0" speed="13.89" length="6.85" shape="108.00,88.23 101.15,88.20"/>
    </edge>
    <edge id=":gneJ101_1" function="internal">
        <lane id=":gneJ101_1_0" index="0" speed="13.89" length="6.98" shape="101.13,84.90 108.11,84.93"/>
    </edge>
    <edge id=":gneJ101_2" function="internal">
        <lane id=":gneJ101_2_0" index="0" speed="13.89" length="4.65" shape="104.09,90.76 104.10,89.64 103.61,88.83 102.63,88.36 101.15,88.20"/>
    </edge>
    <edge id=":gneJ101_3" function="internal">
        <lane id=":gneJ101_3_0" index="0" speed="13.89" length="7.63" shape="104.09,90.76 104.79,88.17 105.69,86.34 106.80,85.26 108.11,84.93"/>
    </edge>
    <edge id=":gneJ102_0" function="internal">
        <lane id=":gneJ102_0_0" index="0" speed="13.89" length="6.35" shape="106.51,96.94 100.20,96.20"/>
    </edge>
    <edge id=":gneJ102_1" function="internal">
        <lane id=":gneJ102_1_0" index="0" speed="13.89" length="3.40" shape="106.51,96.94 105.01,96.44 104.10,95.27 104.04,94.94"/>
    </edge>
    <edge id=":gneJ102_4" function="internal">
        <lane id=":gneJ102_4_0" index="0" speed="13.89" length="4.02" shape="104.04,94.94 103.78,93.45 104.05,90.96"/>
    </edge>
    <edge id=":gneJ102_2" function="internal">
        <lane id=":gneJ102_2_0" index="0" speed="13.89" length="4.43" shape="100.62,92.93 101.94,92.94 102.96,92.62 103.66,91.96 104.05,90.96"/>
    </edge>
    <edge id=":gneJ102_3" function="internal">
        <lane id=":gneJ102_3_0" index="0" speed="13.89" length="6.26" shape="100.62,92.93 106.83,93.66"/>
    </edge>
    <edge id=":gneJ103_0" function="internal">
        <lane id=":gneJ103_0_0" index="0" speed="13.89" length="4.79" shape="132.23,88.71 131.07,88.96 130.24,89.60 129.72,90.62 129.53,92.02"/>
    </edge>
    <edge id=":gneJ103_1" function="internal">
        <lane id=":gneJ103_1_0" index="0" speed="13.89" length="9.01" shape="132.23,88.71 123.22,88.76"/>
    </edge>
    <edge id=":gneJ103_2" function="internal">
        <lane id=":gneJ103_2_0" index="0" speed="13.89" length="9.90" shape="132.23,88.71 129.63,88.42 127.83,87.27 126.85,85.24 126.68,82.35"/>
    </edge>
    <edge id=":gneJ103_3" function="internal">
        <lane id=":gneJ103_3_0" index="0" speed="13.89" length="4.11" shape="129.97,82.58 130.03,83.86 130.39,84.76 131.07,85.28 132.06,85.41"/>
    </edge>
    <edge id=":gneJ103_4" function="internal">
        <lane id=":gneJ103_4_0" index="0" speed="13.89" length="9.46" shape="129.97,82.58 129.53,92.02"/>
    </edge>
    <edge id=":gneJ103_5" function="internal">
        <lane id=":gneJ103_5_0" index="0" speed="13.89" length="5.21" shape="129.97,82.58 129.38,85.36 128.06,87.32"/>
    </edge>
    <edge id=":gneJ103_12" function="internal">
        <lane id=":gneJ103_12_0" index="0" speed="13.89" length="5.15" shape="128.06,87.32 126.01,88.45 123.22,88.76"/>
    </edge>
    <edge id=":gneJ103_6" function="internal">
        <lane id=":gneJ103_6_0" index="0" speed="13.89" length="5.17" shape="123.33,85.46 124.71,85.30 125.73,84.73 126.39,83.75 126.68,82.35"/>
    </edge>
    <edge id=":gneJ103_7" function="internal">
        <lane id=":gneJ103_7_0" index="0" speed="13.89" length="8.73" shape="123.33,85.46 132.06,85.41"/>
    </edge>
    <edge id=":gneJ103_8" function="internal">
        <lane id=":gneJ103_8_0" index="0" speed="13.89" length="10.27" shape="123.33,85.46 126.10,85.95 128.05,87.21 129.20,89.23 129.53,92.02"/>
    </edge>
    <edge id=":gneJ103_9" function="internal">
        <lane id=":gneJ103_9_0" index="0" speed="13.89" length="4.99" shape="126.23,91.94 126.07,90.59 125.51,89.61 124.56,89.00 123.22,88.76"/>
    </edge>
    <edge id=":gneJ103_10" function="internal">
        <lane id=":gneJ103_10_0" index="0" speed="13.89" length="9.61" shape="126.23,91.94 126.68,82.35"/>
    </edge>
    <edge id=":gneJ103_11" function="internal">
        <lane id=":gneJ103_11_0" index="0" speed="13.89" length="5.57" shape="126.23,91.94 126.65,89.19 127.76,87.19 128.17,86.90"/>
    </edge>
    <edge id=":gneJ103_13" function="internal">
        <lane id=":gneJ103_13_0" index="0" speed="13.89" length="4.25" shape="128.17,86.90 129.57,85.93 132.06,85.41"/>
    </edge>
    <edge id=":gneJ105_0" function="internal">
        <lane id=":gneJ105_0_0" index="0" speed="13.89" length="8.57" shape="131.15,99.37 122.62,98.50"/>
    </edge>
    <edge id=":gneJ105_1" function="internal">
        <lane id=":gneJ105_1_0" index="0" speed="13.89" length="4.40" shape="131.15,99.37 128.93,98.72 127.37,97.33"/>
    </edge>
    <edge id=":gneJ105_6" function="internal">
        <lane id=":gneJ105_6_0" index="0" speed="13.89" length="5.21" shape="127.37,97.33 126.47,95.19 126.22,92.31"/>
    </edge>
    <edge id=":gneJ105_2" function="internal">
        <lane id=":gneJ105_2_0" index="0" speed="13.89" length="4.63" shape="129.52,92.39 129.61,93.92 129.97,95.05 130.60,95.77 131.50,96.09"/>
    </edge>
    <edge id=":gneJ105_3" function="internal">
        <lane id=":gneJ105_3_0" index="0" speed="13.89" length="10.70" shape="129.52,92.39 129.03,95.31 127.71,97.30 125.58,98.36 122.62,98.50"/>
    </edge>
    <edge id=":gneJ105_4" function="internal">
        <lane id=":gneJ105_4_0" index="0" speed="13.89" length="5.09" shape="122.94,95.22 124.34,95.15 125.36,94.64 125.99,93.70 126.22,92.31"/>
    </edge>
    <edge id=":gneJ105_5" function="internal">
        <lane id=":gneJ105_5_0" index="0" speed="13.89" length="8.61" shape="122.94,95.22 131.50,96.09"/>
    </edge>
    <edge id=":gneJ106_0" function="internal">
        <lane id=":gneJ106_0_0" index="0" speed="13.89" length="5.81" shape="130.34,23.68 130.08,22.26 129.35,21.20 128.16,20.50 126.50,20.17"/>
    </edge>
    <edge id=":gneJ106_1" function="internal">
        <lane id=":gneJ106_1_0" index="0" speed="13.89" length="9.49" shape="130.34,23.68 129.91,14.20"/>
    </edge>
    <edge id=":gneJ106_2" function="internal">
        <lane id=":gneJ106_2_0" index="0" speed="13.89" length="5.12" shape="130.34,23.68 130.69,20.90 131.85,18.89"/>
    </edge>
    <edge id=":gneJ106_12" function="internal">
        <lane id=":gneJ106_12_0" index="0" speed="13.89" length="5.12" shape="131.85,18.89 133.81,17.65 136.57,17.17"/>
    </edge>
    <edge id=":gneJ106_3" function="internal">
        <lane id=":gneJ106_3_0" index="0" speed="13.89" length="4.98" shape="136.67,20.47 135.32,20.70 134.37,21.31 133.81,22.29 133.64,23.64"/>
    </edge>
    <edge id=":gneJ106_4" function="internal">
        <lane id=":gneJ106_4_0" index="0" speed="13.89" length="10.17" shape="136.67,20.47 126.50,20.17"/>
    </edge>
    <edge id=":gneJ106_5" function="internal">
        <lane id=":gneJ106_5_0" index="0" speed="13.89" length="5.59" shape="136.67,20.47 133.89,20.15 131.84,19.00 131.59,18.62"/>
    </edge>
    <edge id=":gneJ106_13" function="internal">
        <lane id=":gneJ106_13_0" index="0" speed="13.89" length="4.81" shape="131.59,18.62 130.51,17.01 129.91,14.20"/>
    </edge>
    <edge id=":gneJ106_6" function="internal">
        <lane id=":gneJ106_6_0" index="0" speed="13.89" length="5.26" shape="133.20,13.96 133.51,15.40 134.17,16.41 135.19,17.01 136.57,17.17"/>
    </edge>
    <edge id=":gneJ106_7" function="internal">
        <lane id=":gneJ106_7_0" index="0" speed="13.89" length="9.69" shape="133.20,13.96 133.64,23.64"/>
    </edge>
    <edge id=":gneJ106_8" function="internal">
        <lane id=":gneJ106_8_0" index="0" speed="13.89" length="5.29" shape="133.20,13.96 132.97,16.90 131.78,18.91"/>
    </edge>
    <edge id=":gneJ106_14" function="internal">
        <lane id=":gneJ106_14_0" index="0" speed="13.89" length="5.55" shape="131.78,18.91 129.62,20.00 126.50,20.17"/>
    </edge>
    <edge id=":gneJ106_9" function="internal">
        <lane id=":gneJ106_9_0" index="0" speed="13.89" length="4.89" shape="126.77,16.88 128.23,16.82 129.24,16.35 129.80,15.48 129.91,14.20"/>
    </edge>
    <edge id=":gneJ106_10" function="internal">
        <lane id=":gneJ106_10_0" index="0" speed="13.89" length="9.80" shape="126.77,16.88 136.57,17.17"/>
    </edge>
    <edge id=":gneJ106_11" function="internal">
        <lane id=":gneJ106_11_0" index="0" speed="13.89" length="5.32" shape="126.77,16.88 129.74,17.51 131.67,18.72"/>
    </edge>
    <edge id=":gneJ106_15" function="internal">
        <lane id=":gneJ106_15_0" index="0" speed="13.89" length="5.44" shape="131.67,18.72 131.88,18.85 133.17,20.89 133.64,23.64"/>
    </edge>
    <edge id=":gneJ107_0" function="internal">
        <lane id=":gneJ107_0_0" index="0" speed="13.89" length="5.77" shape="138.55,2.61 136.73,2.87 135.34,3.40 134.40,4.21 133.89,5.29"/>
    </edge>
    <edge id=":gneJ107_1" function="internal">
        <lane id=":gneJ107_1_0" index="0" speed="13.89" length="10.69" shape="138.55,2.61 135.48,2.77 133.21,2.77 130.95,2.59 127.90,2.19"/>
    </edge>
    <edge id=":gneJ107_2" function="internal">
        <lane id=":gneJ107_2_0" index="0" speed="13.89" length="11.17" shape="138.55,2.61 135.43,2.34 133.31,1.12 132.18,-1.06 132.05,-4.19"/>
    </edge>
    <edge id=":gneJ107_3" function="internal">
        <lane id=":gneJ107_3_0" index="0" speed="13.89" length="5.20" shape="135.34,-3.85 135.40,-2.39 135.92,-1.38 136.91,-0.81 138.36,-0.68"/>
    </edge>
    <edge id=":gneJ107_4" function="internal">
        <lane id=":gneJ107_4_0" index="0" speed="13.89" length="9.25" shape="135.34,-3.85 133.89,5.29"/>
    </edge>
    <edge id=":gneJ107_5" function="internal">
        <lane id=":gneJ107_5_0" index="0" speed="13.89" length="5.93" shape="135.34,-3.85 134.60,-0.85 133.12,1.16 132.81,1.30"/>
    </edge>
    <edge id=":gneJ107_12" function="internal">
        <lane id=":gneJ107_12_0" index="0" speed="13.89" length="5.09" shape="132.81,1.30 130.88,2.17 127.90,2.19"/>
    </edge>
    <edge id=":gneJ107_6" function="internal">
        <lane id=":gneJ107_6_0" index="0" speed="13.89" length="5.54" shape="128.37,-1.08 129.84,-1.10 130.95,-1.62 131.68,-2.65 132.05,-4.19"/>
    </edge>
    <edge id=":gneJ107_7" function="internal">
        <lane id=":gneJ107_7_0" index="0" speed="13.89" length="10.03" shape="128.37,-1.08 131.32,-0.68 133.35,-0.51 135.39,-0.52 138.36,-0.68"/>
    </edge>
    <edge id=":gneJ107_8" function="internal">
        <lane id=":gneJ107_8_0" index="0" speed="13.89" length="9.78" shape="128.37,-1.08 131.27,-0.32 133.15,1.00 134.03,2.87 133.89,5.29"/>
    </edge>
    <edge id=":gneJ107_9" function="internal">
        <lane id=":gneJ107_9_0" index="0" speed="13.89" length="4.13" shape="130.68,4.53 130.67,3.67 130.21,3.00 129.28,2.51 127.90,2.19"/>
    </edge>
    <edge id=":gneJ107_10" function="internal">
        <lane id=":gneJ107_10_0" index="0" speed="13.89" length="8.82" shape="130.68,4.53 132.05,-4.19"/>
    </edge>
    <edge id=":gneJ107_11" function="internal">
        <lane id=":gneJ107_11_0" index="0" speed="13.89" length="4.23" shape="130.68,4.53 131.59,2.39 132.94,1.04"/>
    </edge>
    <edge id=":gneJ107_13" function="internal">
        <lane id=":gneJ107_13_0" index="0" speed="13.89" length="5.78" shape="132.94,1.04 133.17,0.81 135.43,-0.22 138.36,-0.68"/>
    </edge>
    <edge id=":gneJ108_0" function="internal">
        <lane id=":gneJ108_0_0" index="0" speed="13.89" length="9.46" shape="120.64,1.15 111.27,-0.14"/>
    </edge>
    <edge id=":gneJ108_1" function="internal">
        <lane id=":gneJ108_1_0" index="0" speed="13.89" length="5.33" shape="120.64,1.15 117.81,0.32 115.99,-1.21"/>
    </edge>
    <edge id=":gneJ108_6" function="internal">
        <lane id=":gneJ108_6_0" index="0" speed="13.89" length="5.33" shape="115.99,-1.21 115.17,-3.45 115.36,-6.39"/>
    </edge>
    <edge id=":gneJ108_2" function="internal">
        <lane id=":gneJ108_2_0" index="0" speed="13.89" length="5.08" shape="118.59,-5.71 118.50,-4.31 118.89,-3.25 119.76,-2.51 121.10,-2.12"/>
    </edge>
    <edge id=":gneJ108_3" function="internal">
        <lane id=":gneJ108_3_0" index="0" speed="13.89" length="10.32" shape="118.59,-5.71 117.63,-2.98 116.09,-1.14 113.97,-0.19 111.27,-0.14"/>
    </edge>
    <edge id=":gneJ108_4" function="internal">
        <lane id=":gneJ108_4_0" index="0" speed="13.89" length="5.30" shape="111.70,-3.41 113.03,-3.45 114.09,-3.96 114.86,-4.94 115.36,-6.39"/>
    </edge>
    <edge id=":gneJ108_5" function="internal">
        <lane id=":gneJ108_5_0" index="0" speed="13.89" length="9.50" shape="111.70,-3.41 121.10,-2.12"/>
    </edge>
    <edge id=":gneJ109_0" function="internal">
        <lane id=":gneJ109_0_0" index="0" speed="13.89" length="4.63" shape="136.86,-20.12 136.93,-18.74 137.34,-17.73 138.12,-17.09 139.24,-16.83"/>
    </edge>
    <edge id=":gneJ109_1" function="internal">
        <lane id=":gneJ109_1_0" index="0" speed="13.89" length="9.65" shape="136.86,-20.12 136.02,-10.51"/>
    </edge>
    <edge id=":gneJ109_2" function="internal">
        <lane id=":gneJ109_2_0" index="0" speed="13.89" length="5.38" shape="136.86,-20.12 136.25,-17.32 134.90,-15.41 134.74,-15.33"/>
    </edge>
    <edge id=":gneJ109_9" function="internal">
        <lane id=":gneJ109_9_0" index="0" speed="13.89" length="5.03" shape="134.74,-15.33 132.79,-14.38 129.93,-14.23"/>
    </edge>
    <edge id=":gneJ109_3" function="internal">
        <lane id=":gneJ109_3_0" index="0" speed="13.89" length="5.02" shape="130.23,-17.52 131.61,-17.59 132.62,-18.08 133.28,-19.01 133.57,-20.36"/>
    </edge>
    <edge id=":gneJ109_4" function="internal">
        <lane id=":gneJ109_4_0" index="0" speed="13.89" length="9.04" shape="130.23,-17.52 139.24,-16.83"/>
    </edge>
    <edge id=":gneJ109_5" function="internal">
        <lane id=":gneJ109_5_0" index="0" speed="13.89" length="10.40" shape="130.23,-17.52 133.01,-16.86 134.90,-15.47 135.91,-13.35 136.02,-10.51"/>
    </edge>
    <edge id=":gneJ109_6" function="internal">
        <lane id=":gneJ109_6_0" index="0" speed="13.89" length="5.03" shape="132.74,-10.84 132.68,-12.22 132.20,-13.24 131.28,-13.91 129.93,-14.23"/>
    </edge>
    <edge id=":gneJ109_7" function="internal">
        <lane id=":gneJ109_7_0" index="0" speed="13.89" length="9.55" shape="132.74,-10.84 133.57,-20.36"/>
    </edge>
    <edge id=":gneJ109_8" function="internal">
        <lane id=":gneJ109_8_0" index="0" speed="13.89" length="5.34" shape="132.74,-10.84 133.39,-13.59 134.69,-15.51 134.86,-15.60"/>
    </edge>
    <edge id=":gneJ109_10" function="internal">
        <lane id=":gneJ109_10_0" index="0" speed="13.89" length="4.65" shape="134.86,-15.60 136.64,-16.59 139.24,-16.83"/>
    </edge>
    <edge id=":gneJ11_0" function="internal">
        <lane id=":gneJ11_0_0" index="0" speed="13.89" length="5.09" shape="17.27,-3.41 17.07,-4.80 16.46,-5.77 15.46,-6.30 14.06,-6.40"/>
    </edge>
    <edge id=":gneJ11_1" function="internal">
        <lane id=":gneJ11_1_0" index="0" speed="13.89" length="9.58" shape="17.27,-3.41 17.06,-12.99"/>
    </edge>
    <edge id=":gneJ11_2" function="internal">
        <lane id=":gneJ11_2_0" index="0" speed="13.89" length="5.18" shape="17.27,-3.41 17.69,-6.33 18.86,-8.23"/>
    </edge>
    <edge id=":gneJ11_12" function="internal">
        <lane id=":gneJ11_12_0" index="0" speed="13.89" length="5.49" shape="18.86,-8.23 18.95,-8.36 21.04,-9.49 23.98,-9.73"/>
    </edge>
    <edge id=":gneJ11_3" function="internal">
        <lane id=":gneJ11_3_0" index="0" speed="13.89" length="5.10" shape="23.77,-6.43 22.37,-6.32 21.37,-5.78 20.77,-4.81 20.57,-3.41"/>
    </edge>
    <edge id=":gneJ11_4" function="internal">
        <lane id=":gneJ11_4_0" index="0" speed="13.89" length="9.71" shape="23.77,-6.43 14.06,-6.40"/>
    </edge>
    <edge id=":gneJ11_5" function="internal">
        <lane id=":gneJ11_5_0" index="0" speed="13.89" length="4.99" shape="23.77,-6.43 20.94,-7.00 19.15,-8.11"/>
    </edge>
    <edge id=":gneJ11_13" function="internal">
        <lane id=":gneJ11_13_0" index="0" speed="13.89" length="5.46" shape="19.15,-8.11 18.88,-8.28 17.58,-10.28 17.06,-12.99"/>
    </edge>
    <edge id=":gneJ11_6" function="internal">
        <lane id=":gneJ11_6_0" index="0" speed="13.89" length="5.54" shape="20.36,-13.14 20.64,-11.73 21.33,-10.69 22.45,-10.03 23.98,-9.73"/>
    </edge>
    <edge id=":gneJ11_7" function="internal">
        <lane id=":gneJ11_7_0" index="0" speed="13.89" length="9.73" shape="20.36,-13.14 20.57,-3.41"/>
    </edge>
    <edge id=":gneJ11_8" function="internal">
        <lane id=":gneJ11_8_0" index="0" speed="13.89" length="5.33" shape="20.36,-13.14 20.07,-10.37 18.92,-8.32 18.76,-8.21"/>
    </edge>
    <edge id=":gneJ11_14" function="internal">
        <lane id=":gneJ11_14_0" index="0" speed="13.89" length="5.13" shape="18.76,-8.21 16.92,-7.00 14.06,-6.40"/>
    </edge>
    <edge id=":gneJ11_9" function="internal">
        <lane id=":gneJ11_9_0" index="0" speed="13.89" length="5.24" shape="13.82,-9.69 15.29,-9.99 16.32,-10.64 16.91,-11.64 17.06,-12.99"/>
    </edge>
    <edge id=":gneJ11_10" function="internal">
        <lane id=":gneJ11_10_0" index="0" speed="13.89" length="10.16" shape="13.82,-9.69 23.98,-9.73"/>
    </edge>
    <edge id=":gneJ11_11" function="internal">
        <lane id=":gneJ11_11_0" index="0" speed="13.89" length="5.75" shape="13.82,-9.69 16.77,-9.48 18.88,-8.36 19.10,-8.02"/>
    </edge>
    <edge id=":gneJ11_15" function="internal">
        <lane id=":gneJ11_15_0" index="0" speed="13.89" length="4.94" shape="19.10,-8.02 20.15,-6.34 20.57,-3.41"/>
    </edge>
    <edge id=":gneJ118_0" function="internal">
        <lane id=":gneJ118_0_0" index="0" speed="13.89" length="5.37" shape="141.28,89.44 139.87,89.38 138.80,89.85 138.07,90.84 137.68,92.35"/>
    </edge>
    <edge id=":gneJ118_1" function="internal">
        <lane id=":gneJ118_1_0" index="0" speed="13.89" length="8.93" shape="141.28,89.44 138.69,88.92 136.89,88.66 135.07,88.60 132.43,88.70"/>
    </edge>
    <edge id=":gneJ118_2" function="internal">
        <lane id=":gneJ118_2_0" index="0" speed="13.89" length="10.31" shape="141.28,89.44 138.54,88.52 136.62,87.02 135.53,84.95 135.27,82.32"/>
    </edge>
    <edge id=":gneJ118_3" function="internal">
        <lane id=":gneJ118_3_0" index="0" speed="13.89" length="5.55" shape="138.56,82.48 138.72,83.85 139.33,84.92 140.40,85.71 141.94,86.21"/>
    </edge>
    <edge id=":gneJ118_4" function="internal">
        <lane id=":gneJ118_4_0" index="0" speed="13.89" length="9.90" shape="138.56,82.48 137.68,92.35"/>
    </edge>
    <edge id=":gneJ118_5" function="internal">
        <lane id=":gneJ118_5_0" index="0" speed="13.89" length="5.43" shape="138.56,82.48 138.07,85.09 136.88,87.00 136.43,87.28"/>
    </edge>
    <edge id=":gneJ118_12" function="internal">
        <lane id=":gneJ118_12_0" index="0" speed="13.89" length="4.32" shape="136.43,87.28 135.00,88.20 132.43,88.70"/>
    </edge>
    <edge id=":gneJ118_6" function="internal">
        <lane id=":gneJ118_6_0" index="0" speed="13.89" length="4.81" shape="132.26,85.40 133.52,85.15 134.44,84.56 135.02,83.61 135.27,82.32"/>
    </edge>
    <edge id=":gneJ118_7" function="internal">
        <lane id=":gneJ118_7_0" index="0" speed="13.89" length="9.75" shape="132.26,85.40 135.15,85.29 137.13,85.35 139.10,85.64 141.94,86.21"/>
    </edge>
    <edge id=":gneJ118_8" function="internal">
        <lane id=":gneJ118_8_0" index="0" speed="13.89" length="10.47" shape="132.26,85.40 134.96,85.72 136.77,86.98 137.68,89.19 137.68,92.35"/>
    </edge>
    <edge id=":gneJ118_9" function="internal">
        <lane id=":gneJ118_9_0" index="0" speed="13.89" length="4.48" shape="134.41,91.95 134.44,90.48 134.12,89.45 133.45,88.86 132.43,88.70"/>
    </edge>
    <edge id=":gneJ118_10" function="internal">
        <lane id=":gneJ118_10_0" index="0" speed="13.89" length="9.67" shape="134.41,91.95 135.27,82.32"/>
    </edge>
    <edge id=":gneJ118_11" function="internal">
        <lane id=":gneJ118_11_0" index="0" speed="13.89" length="5.30" shape="134.41,91.95 135.20,88.93 136.54,87.21"/>
    </edge>
    <edge id=":gneJ118_13" function="internal">
        <lane id=":gneJ118_13_0" index="0" speed="13.89" length="5.70" shape="136.54,87.21 136.72,86.97 138.96,86.06 141.94,86.21"/>
    </edge>
    <edge id=":gneJ12_0" function="internal">
        <lane id=":gneJ12_0_0" index="0" speed="13.89" length="5.06" shape="16.91,-16.36 16.65,-17.70 16.01,-18.64 14.99,-19.19 13.59,-19.34"/>
    </edge>
    <edge id=":gneJ12_1" function="internal">
        <lane id=":gneJ12_1_0" index="0" speed="13.89" length="12.49" shape="16.91,-16.36 16.37,-28.83"/>
    </edge>
    <edge id=":gneJ12_2" function="internal">
        <lane id=":gneJ12_2_0" index="0" speed="13.89" length="7.49" shape="16.91,-16.36 17.14,-20.63 18.29,-23.63"/>
    </edge>
    <edge id=":gneJ12_9" function="internal">
        <lane id=":gneJ12_9_0" index="0" speed="13.89" length="5.72" shape="18.29,-23.63 20.36,-25.36 23.35,-25.82"/>
    </edge>
    <edge id=":gneJ12_3" function="internal">
        <lane id=":gneJ12_3_0" index="0" speed="13.89" length="7.57" shape="23.18,-22.52 21.77,-22.21 20.81,-21.10 20.28,-19.20 20.20,-16.51"/>
    </edge>
    <edge id=":gneJ12_4" function="internal">
        <lane id=":gneJ12_4_0" index="0" speed="13.89" length="9.69" shape="23.18,-22.52 13.49,-22.63"/>
    </edge>
    <edge id=":gneJ12_5" function="internal">
        <lane id=":gneJ12_5_0" index="0" speed="13.89" length="10.39" shape="23.18,-22.52 20.29,-23.04 18.19,-24.27 16.88,-26.20 16.37,-28.83"/>
    </edge>
    <edge id=":gneJ12_6" function="internal">
        <lane id=":gneJ12_6_0" index="0" speed="13.89" length="5.41" shape="19.67,-28.96 19.94,-27.65 20.65,-26.69 21.78,-26.08 23.35,-25.82"/>
    </edge>
    <edge id=":gneJ12_7" function="internal">
        <lane id=":gneJ12_7_0" index="0" speed="13.89" length="12.46" shape="19.67,-28.96 20.20,-16.51"/>
    </edge>
    <edge id=":gneJ12_8" function="internal">
        <lane id=":gneJ12_8_0" index="0" speed="13.89" length="4.96" shape="19.67,-28.96 19.37,-26.27 18.24,-24.31"/>
    </edge>
    <edge id=":gneJ12_10" function="internal">
        <lane id=":gneJ12_10_0" index="0" speed="13.89" length="5.13" shape="18.24,-24.31 16.28,-23.10 13.49,-22.63"/>
    </edge>
    <edge id=":gneJ13_0" function="internal">
        <lane id=":gneJ13_0_0" index="0" speed="13.89" length="0.30" shape="15.94,-40.23 15.93,-40.53"/>
    </edge>
    <edge id=":gneJ13_1" function="internal">
        <lane id=":gneJ13_1_0" index="0" speed="13.89" length="0.10" shape="19.23,-40.45 19.23,-40.35"/>
    </edge>
    <edge id=":gneJ133_0" function="internal">
        <lane id=":gneJ133_0_0" index="0" speed="13.89" length="2.47" shape="142.23,26.94 141.56,27.01 141.06,27.27 140.73,27.73 140.57,28.38"/>
    </edge>
    <edge id=":gneJ133_1" function="internal">
        <lane id=":gneJ133_1_0" index="0" speed="13.89" length="7.58" shape="137.29,28.05 137.78,26.05 138.79,24.65 140.33,23.84 142.38,23.64"/>
    </edge>
    <edge id=":gneJ134_0" function="internal">
        <lane id=":gneJ134_0_0" index="0" speed="13.89" length="7.13" shape="167.08,20.38 165.50,20.42 164.06,21.07 162.76,22.32 161.62,24.17"/>
    </edge>
    <edge id=":gneJ134_1" function="internal">
        <lane id=":gneJ134_1_0" index="0" speed="13.89" length="11.17" shape="167.08,20.38 163.96,19.96 161.53,19.80 159.10,19.81 155.95,19.90"/>
    </edge>
    <edge id=":gneJ134_2" function="internal">
        <lane id=":gneJ134_2_0" index="0" speed="13.89" length="4.56" shape="167.08,20.38 163.89,19.47 163.08,18.52"/>
    </edge>
    <edge id=":gneJ134_9" function="internal">
        <lane id=":gneJ134_9_0" index="0" speed="13.89" length="6.43" shape="163.08,18.52 162.65,18.02 163.37,16.04 166.04,13.54"/>
    </edge>
    <edge id=":gneJ134_3" function="internal">
        <lane id=":gneJ134_3_0" index="0" speed="13.89" length="10.92" shape="155.85,16.60 158.99,16.49 161.33,16.15 163.47,15.27 166.04,13.54"/>
    </edge>
    <edge id=":gneJ134_4" function="internal">
        <lane id=":gneJ134_4_0" index="0" speed="13.89" length="11.75" shape="155.85,16.60 167.59,17.12"/>
    </edge>
    <edge id=":gneJ134_5" function="internal">
        <lane id=":gneJ134_5_0" index="0" speed="13.89" length="6.43" shape="155.85,16.60 159.84,16.97 161.92,18.22"/>
    </edge>
    <edge id=":gneJ134_10" function="internal">
        <lane id=":gneJ134_10_0" index="0" speed="13.89" length="6.32" shape="161.92,18.22 162.14,18.35 162.73,20.75 161.62,24.17"/>
    </edge>
    <edge id=":gneJ134_6" function="internal">
        <lane id=":gneJ134_6_0" index="0" speed="13.89" length="5.16" shape="158.66,22.69 159.04,21.43 158.71,20.54 157.68,20.03 155.95,19.90"/>
    </edge>
    <edge id=":gneJ134_7" function="internal">
        <lane id=":gneJ134_7_0" index="0" speed="13.89" length="11.90" shape="158.66,22.69 160.20,19.80 161.70,17.57 163.52,15.62 166.04,13.54"/>
    </edge>
    <edge id=":gneJ134_8" function="internal">