<?xml version="1.0" encoding="UTF-8"?>
<routes xmlns:xsi="http://www.w3.org/2001/XMLSchema-instance" xsi:noNamespaceSchemaLocation="http://sumo.dlr.de/xsd/routes_file.xsd">
  <vType accel="1.0" decel="5.0" id="Car" length="5.0" minGap="2.0" maxSpeed="50.0" sigma="0" />
  
  	<flow id="flow_1-2_" from="-gneE483" to="gneE458" begin="0" end="100" number="50"/>
  	<flow id="flow_2-1_" from="gneE479" to="gneE462" begin="0" end="100" number="50"/>
	<flow id="flow_3-1_" from="-gneE429" to="gneE462" begin="0" end="100" number="50"/>
	<flow id="flow_4-1_" from="-gneE453" to="gneE462" begin="0" end="100" number="50"/>
	
	<flow id="flow_1-3_" from="-gneE483" to="gneE430" begin="3" end="103" number="50"/>
	<flow id="flow_2-3_" from="gneE479" to="gneE442" begin="3" end="103" number="50"/>
	<flow id="flow_3-2_" from="-gneE429" to="gneE458" begin="3" end="103" number="50"/>
	<flow id="flow_4-2_" from="-gneE453" to="gneE458" begin="3" end="103" number="50"/>
	
	<flow id="flow_1-4_" from="-gneE483" to="gneE430" begin="6" end="106" number="50"/>
	<flow id="flow_2-4_" from="gneE479" to="gneE430" begin="6" end="106" number="50"/>
	<flow id="flow_3-4_" from="-gneE429" to="gneE442" begin="6" end="106" number="50"/>
	<flow id="flow_4-3_" from="-gneE453" to="gneE442" begin="6" end="106" number="50"/>

</routes>