<?xml version="1.0" encoding="UTF-8"?>

<!-- generated on Mon 20 Mar 12:23:24 2017 by Netedit Version 0.28.0
<?xml version="1.0" encoding="UTF-8"?>

<configuration xmlns:xsi="http://www.w3.org/2001/XMLSchema-instance" xsi:noNamespaceSchemaLocation="http://sumo.dlr.de/xsd/netedit.exeConfiguration.xsd">

    <input>
        <sumo-net-file value="/Users/gabrielletlim/Documents/ECOLE/CEGEP/SESSION4/PROGRAMMATION/routeTemporaire.net.xml"/>
    </input>

    <output>
        <output-file value="/Users/gabrielletlim/Desktop/routeTemporaire.net.xml"/>
        <plain-output-prefix value=""/>
    </output>

    <processing>
        <no-turnarounds value="true"/>
        <offset.disable-normalization value="true"/>
        <lefthand value="false"/>
        <junctions.corner-detail value="0"/>
    </processing>

</configuration>
-->

<net version="0.27" xmlns:xsi="http://www.w3.org/2001/XMLSchema-instance" xsi:noNamespaceSchemaLocation="http://sumo.dlr.de/xsd/net_file.xsd">

    <location netOffset="0.00,0.00" convBoundary="-37.69,2.14,137.28,94.93" origBoundary="-10000000000.00,-10000000000.00,10000000000.00,10000000000.00" projParameter="!"/>

    <edge id=":gneJ1_0" function="internal">
        <lane id=":gneJ1_0_0" index="0" speed="13.89" length="9.61" shape="-25.76,65.99 -29.38,66.31 -31.98,66.97 -33.54,67.97 -34.07,69.31"/>
    </edge>
    <edge id=":gneJ1_1" function="internal">
        <lane id=":gneJ1_1_0" index="0" speed="13.89" length="17.81" shape="-25.76,65.99 -30.82,65.51 -34.47,63.65 -36.73,60.42 -37.60,55.82"/>
    </edge>
    <edge id=":gneJ1_2" function="internal">
        <lane id=":gneJ1_2_0" index="0" speed="13.89" length="17.18" shape="-25.76,65.99 -31.30,65.59 -33.82,63.89 -33.31,60.90 -29.79,56.60"/>
    </edge>
    <edge id=":gneJ1_3" function="internal">
        <lane id=":gneJ1_3_0" index="0" speed="13.89" length="6.84" shape="-27.48,58.96 -28.88,60.67 -29.08,61.86 -28.08,62.54 -25.88,62.70"/>
    </edge>
    <edge id=":gneJ1_4" function="internal">
        <lane id=":gneJ1_4_0" index="0" speed="13.89" length="12.69" shape="-27.48,58.96 -30.01,61.35 -32.09,63.57 -33.52,66.08 -34.07,69.31"/>
    </edge>
    <edge id=":gneJ1_5" function="internal">
        <lane id=":gneJ1_5_0" index="0" speed="13.89" length="6.75" shape="-27.48,58.96 -31.76,62.34 -33.03,62.59"/>
    </edge>
    <edge id=":gneJ1_12" function="internal">
        <lane id=":gneJ1_12_0" index="0" speed="13.89" length="9.81" shape="-33.03,62.59 -34.87,62.95 -36.82,60.77 -37.60,55.82"/>
    </edge>
    <edge id=":gneJ1_6" function="internal">
        <lane id=":gneJ1_6_0" index="0" speed="13.89" length="7.09" shape="-34.30,55.72 -33.96,57.71 -33.09,58.52 -31.70,58.15 -29.79,56.60"/>
    </edge>
    <edge id=":gneJ1_7" function="internal">
        <lane id=":gneJ1_7_0" index="0" speed="13.89" length="12.47" shape="-34.30,55.72 -33.69,58.88 -32.08,61.09 -29.48,62.37 -25.88,62.70"/>
    </edge>
    <edge id=":gneJ1_8" function="internal">
        <lane id=":gneJ1_8_0" index="0" speed="13.89" length="13.60" shape="-34.30,55.72 -34.07,69.31"/>
    </edge>
    <edge id=":gneJ1_9" function="internal">
        <lane id=":gneJ1_9_0" index="0" speed="13.89" length="13.45" shape="-37.37,69.27 -37.60,55.82"/>
    </edge>
    <edge id=":gneJ1_10" function="internal">
        <lane id=":gneJ1_10_0" index="0" speed="13.89" length="5.58" shape="-37.37,69.27 -36.67,65.68 -35.76,63.99"/>
    </edge>
    <edge id=":gneJ1_11" function="internal">
        <lane id=":gneJ1_11_0" index="0" speed="13.89" length="4.05" shape="-37.37,69.27 -36.63,66.55 -35.73,65.72"/>
    </edge>
    <edge id=":gneJ1_13" function="internal">
        <lane id=":gneJ1_13_0" index="0" speed="13.89" length="9.54" shape="-35.76,63.99 -34.90,62.38 -32.48,59.36 -29.79,56.60"/>
    </edge>
    <edge id=":gneJ1_14" function="internal">
        <lane id=":gneJ1_14_0" index="0" speed="13.89" length="10.57" shape="-35.73,65.72 -34.46,64.54 -30.88,63.26 -25.88,62.70"/>
    </edge>
    <edge id=":gneJ10_0" function="internal">
        <lane id=":gneJ10_0_0" index="0" speed="13.89" length="5.22" shape="3.47,7.21 3.20,5.74 2.57,4.70 1.59,4.09 0.24,3.91"/>
    </edge>
    <edge id=":gneJ10_1" function="internal">
        <lane id=":gneJ10_1_0" index="0" speed="13.89" length="10.64" shape="3.47,7.21 3.73,4.28 4.88,2.20 6.91,0.96 9.82,0.56"/>
    </edge>
    <edge id=":gneJ10_2" function="internal">
        <lane id=":gneJ10_2_0" index="0" speed="13.89" length="5.08" shape="9.80,3.86 8.40,4.05 7.44,4.64 6.89,5.64 6.76,7.03"/>
    </edge>
    <edge id=":gneJ10_3" function="internal">
        <lane id=":gneJ10_3_0" index="0" speed="13.89" length="9.55" shape="9.80,3.86 0.24,3.91"/>
    </edge>
    <edge id=":gneJ10_4" function="internal">
        <lane id=":gneJ10_4_0" index="0" speed="13.89" length="9.64" shape="0.18,0.61 9.82,0.56"/>
    </edge>
    <edge id=":gneJ10_5" function="internal">
        <lane id=":gneJ10_5_0" index="0" speed="13.89" length="5.26" shape="0.18,0.61 2.93,0.97 4.94,2.16 5.02,2.29"/>
    </edge>
    <edge id=":gneJ10_6" function="internal">
        <lane id=":gneJ10_6_0" index="0" speed="13.89" length="5.15" shape="5.02,2.29 6.22,4.18 6.76,7.03"/>
    </edge>
    <edge id=":gneJ11_0" function="internal">
        <lane id=":gneJ11_0_0" index="0" speed="13.89" length="5.36" shape="48.83,62.75 47.49,62.96 46.51,63.62 45.90,64.71 45.64,66.26"/>
    </edge>
    <edge id=":gneJ11_1" function="internal">
        <lane id=":gneJ11_1_0" index="0" speed="13.89" length="9.63" shape="48.83,62.75 39.21,63.05"/>
    </edge>
    <edge id=":gneJ11_2" function="internal">
        <lane id=":gneJ11_2_0" index="0" speed="13.89" length="9.87" shape="38.99,59.76 48.85,59.45"/>
    </edge>
    <edge id=":gneJ11_3" function="internal">
        <lane id=":gneJ11_3_0" index="0" speed="13.89" length="5.60" shape="38.99,59.76 42.01,59.99 44.13,61.16 44.21,61.29"/>
    </edge>
    <edge id=":gneJ11_6" function="internal">
        <lane id=":gneJ11_6_0" index="0" speed="13.89" length="5.28" shape="44.21,61.29 45.34,63.24 45.64,66.26"/>
    </edge>
    <edge id=":gneJ11_4" function="internal">
        <lane id=":gneJ11_4_0" index="0" speed="13.89" length="5.13" shape="42.34,66.12 42.20,64.70 41.63,63.71 40.63,63.16 39.21,63.05"/>
    </edge>
    <edge id=":gneJ11_5" function="internal">
        <lane id=":gneJ11_5_0" index="0" speed="13.89" length="10.54" shape="42.34,66.12 42.86,63.19 44.11,61.10 46.11,59.85 48.85,59.45"/>
    </edge>
    <edge id=":gneJ12_0" function="internal">
        <lane id=":gneJ12_0_0" index="0" speed="13.89" length="9.48" shape="47.48,93.69 38.02,93.12"/>
    </edge>
    <edge id=":gneJ12_1" function="internal">
        <lane id=":gneJ12_1_0" index="0" speed="13.89" length="5.12" shape="47.48,93.69 44.75,93.12 42.83,91.79"/>
    </edge>
    <edge id=":gneJ12_6" function="internal">
        <lane id=":gneJ12_6_0" index="0" speed="13.89" length="5.19" shape="42.83,91.79 41.74,89.71 41.46,86.88"/>
    </edge>
    <edge id=":gneJ12_2" function="internal">
        <lane id=":gneJ12_2_0" index="0" speed="13.89" length="5.07" shape="44.76,87.02 44.89,88.43 45.43,89.46 46.36,90.11 47.69,90.39"/>
    </edge>
    <edge id=":gneJ12_3" function="internal">
        <lane id=":gneJ12_3_0" index="0" speed="13.89" length="10.40" shape="44.76,87.02 44.24,89.83 42.94,91.78 40.87,92.88 38.02,93.12"/>
    </edge>
    <edge id=":gneJ12_4" function="internal">
        <lane id=":gneJ12_4_0" index="0" speed="13.89" length="5.02" shape="38.21,89.83 39.59,89.71 40.59,89.18 41.21,88.24 41.46,86.88"/>
    </edge>
    <edge id=":gneJ12_5" function="internal">
        <lane id=":gneJ12_5_0" index="0" speed="13.89" length="9.49" shape="38.21,89.83 47.69,90.39"/>
    </edge>
    <edge id=":gneJ13_0" function="internal">
        <lane id=":gneJ13_0_0" index="0" speed="13.89" length="2.44" shape="98.53,29.84 98.42,29.19 98.12,28.72 97.65,28.42 97.00,28.30"/>
    </edge>
    <edge id=":gneJ13_1" function="internal">
        <lane id=":gneJ13_1_0" index="0" speed="13.89" length="7.48" shape="97.12,25.00 99.12,25.36 100.57,26.27 101.47,27.72 101.83,29.72"/>
    </edge>
    <edge id=":gneJ14_0" function="internal">
        <lane id=":gneJ14_0_0" index="0" speed="13.89" length="5.49" shape="74.07,63.11 72.70,63.27 71.65,63.88 70.94,64.97 70.56,66.53"/>
    </edge>
    <edge id=":gneJ14_1" function="internal">
        <lane id=":gneJ14_1_0" index="0" speed="13.89" length="9.69" shape="74.07,63.11 64.39,62.84"/>
    </edge>
    <edge id=":gneJ14_2" function="internal">
        <lane id=":gneJ14_2_0" index="0" speed="13.89" length="5.07" shape="74.07,63.11 71.36,62.57 69.44,61.29"/>
    </edge>
    <edge id=":gneJ14_12" function="internal">
        <lane id=":gneJ14_12_0" index="0" speed="13.89" length="5.13" shape="69.44,61.29 68.31,59.25 67.96,56.47"/>
    </edge>
    <edge id=":gneJ14_3" function="internal">
        <lane id=":gneJ14_3_0" index="0" speed="13.89" length="5.03" shape="71.26,56.52 71.43,57.90 71.98,58.91 72.92,59.55 74.25,59.82"/>
    </edge>
    <edge id=":gneJ14_4" function="internal">
        <lane id=":gneJ14_4_0" index="0" speed="13.89" length="10.03" shape="71.26,56.52 70.56,66.53"/>
    </edge>
    <edge id=":gneJ14_5" function="internal">
        <lane id=":gneJ14_5_0" index="0" speed="13.89" length="5.50" shape="71.26,56.52 70.79,59.30 69.49,61.28 69.22,61.43"/>
    </edge>
    <edge id=":gneJ14_13" function="internal">
        <lane id=":gneJ14_13_0" index="0" speed="13.89" length="5.12" shape="69.22,61.43 67.36,62.46 64.39,62.84"/>
    </edge>
    <edge id=":gneJ14_6" function="internal">
        <lane id=":gneJ14_6_0" index="0" speed="13.89" length="5.33" shape="64.40,59.54 65.94,59.36 67.05,58.78 67.72,57.82 67.96,56.47"/>
    </edge>
    <edge id=":gneJ14_7" function="internal">
        <lane id=":gneJ14_7_0" index="0" speed="13.89" length="9.85" shape="64.40,59.54 74.25,59.82"/>
    </edge>
    <edge id=":gneJ14_8" function="internal">
        <lane id=":gneJ14_8_0" index="0" speed="13.89" length="5.46" shape="64.40,59.54 67.41,59.99 69.44,61.31"/>
    </edge>
    <edge id=":gneJ14_14" function="internal">
        <lane id=":gneJ14_14_0" index="0" speed="13.89" length="5.46" shape="69.44,61.31 70.49,63.48 70.56,66.53"/>
    </edge>
    <edge id=":gneJ14_9" function="internal">
        <lane id=":gneJ14_9_0" index="0" speed="13.89" length="5.14" shape="67.28,66.13 67.25,64.70 66.76,63.67 65.80,63.05 64.39,62.84"/>
    </edge>
    <edge id=":gneJ14_10" function="internal">
        <lane id=":gneJ14_10_0" index="0" speed="13.89" length="9.68" shape="67.28,66.13 67.96,56.47"/>
    </edge>
    <edge id=":gneJ14_11" function="internal">
        <lane id=":gneJ14_11_0" index="0" speed="13.89" length="5.24" shape="67.28,66.13 68.02,63.25 69.31,61.39"/>
    </edge>
    <edge id=":gneJ14_15" function="internal">
        <lane id=":gneJ14_15_0" index="0" speed="13.89" length="5.32" shape="69.31,61.39 69.43,61.23 71.50,60.09 74.25,59.82"/>
    </edge>
    <edge id=":gneJ15_0" function="internal">
        <lane id=":gneJ15_0_0" index="0" speed="13.89" length="8.34" shape="70.80,80.97 68.53,80.53 67.00,79.48 66.21,77.79 66.15,75.48"/>
    </edge>
    <edge id=":gneJ15_1" function="internal">
        <lane id=":gneJ15_1_0" index="0" speed="13.89" length="2.72" shape="69.43,75.88 69.45,76.63 69.70,77.18 70.20,77.53 70.95,77.67"/>
    </edge>
    <edge id=":gneJ16_0" function="internal">
        <lane id=":gneJ16_0_0" index="0" speed="13.89" length="6.57" shape="101.66,82.00 99.85,82.26 98.47,82.98 97.53,84.14 97.03,85.75"/>
    </edge>
    <edge id=":gneJ16_1" function="internal">
        <lane id=":gneJ16_1_0" index="0" speed="13.89" length="10.68" shape="101.66,82.00 90.98,81.88"/>
    </edge>
    <edge id=":gneJ16_2" function="internal">
        <lane id=":gneJ16_2_0" index="0" speed="13.89" length="5.70" shape="101.66,82.00 98.47,81.60 96.38,80.27"/>
    </edge>
    <edge id=":gneJ16_12" function="internal">
        <lane id=":gneJ16_12_0" index="0" speed="13.89" length="5.70" shape="96.38,80.27 95.39,78.00 95.51,74.78"/>
    </edge>
    <edge id=":gneJ16_3" function="internal">
        <lane id=":gneJ16_3_0" index="0" speed="13.89" length="5.26" shape="98.76,75.37 98.70,76.85 99.16,77.90 100.12,78.52 101.60,78.70"/>
    </edge>
    <edge id=":gneJ16_4" function="internal">
        <lane id=":gneJ16_4_0" index="0" speed="13.89" length="10.53" shape="98.76,75.37 97.03,85.75"/>
    </edge>
    <edge id=":gneJ16_5" function="internal">
        <lane id=":gneJ16_5_0" index="0" speed="13.89" length="5.73" shape="98.76,75.37 97.81,78.33 96.20,80.40"/>
    </edge>
    <edge id=":gneJ16_13" function="internal">
        <lane id=":gneJ16_13_0" index="0" speed="13.89" length="5.52" shape="96.20,80.40 93.92,81.58 90.98,81.88"/>
    </edge>
    <edge id=":gneJ16_6" function="internal">
        <lane id=":gneJ16_6_0" index="0" speed="13.89" length="6.43" shape="91.13,78.58 92.78,78.41 94.06,77.71 94.97,76.51 95.51,74.78"/>
    </edge>
    <edge id=":gneJ16_7" function="internal">
        <lane id=":gneJ16_7_0" index="0" speed="13.89" length="10.46" shape="91.13,78.58 101.60,78.70"/>
    </edge>
    <edge id=":gneJ16_8" function="internal">
        <lane id=":gneJ16_8_0" index="0" speed="13.89" length="5.08" shape="91.13,78.58 94.10,79.15 95.79,80.33"/>
    </edge>
    <edge id=":gneJ16_14" function="internal">
        <lane id=":gneJ16_14_0" index="0" speed="13.89" length="5.78" shape="95.79,80.33 96.07,80.53 97.05,82.73 97.03,85.75"/>
    </edge>
    <edge id=":gneJ16_9" function="internal">
        <lane id=":gneJ16_9_0" index="0" speed="13.89" length="5.13" shape="93.77,85.26 93.78,83.84 93.32,82.80 92.39,82.15 90.98,81.88"/>
    </edge>
    <edge id=":gneJ16_10" function="internal">
        <lane id=":gneJ16_10_0" index="0" speed="13.89" length="10.63" shape="93.77,85.26 95.51,74.78"/>
    </edge>
    <edge id=":gneJ16_11" function="internal">
        <lane id=":gneJ16_11_0" index="0" speed="13.89" length="5.64" shape="93.77,85.26 94.62,82.44 96.21,80.41 96.31,80.36"/>
    </edge>
    <edge id=":gneJ16_15" function="internal">
        <lane id=":gneJ16_15_0" index="0" speed="13.89" length="5.63" shape="96.31,80.36 98.53,79.16 101.60,78.70"/>
    </edge>
    <edge id=":gneJ17_0" function="internal">
        <lane id=":gneJ17_0_0" index="0" speed="13.89" length="10.00" shape="99.41,96.43 89.42,96.30"/>
    </edge>
    <edge id=":gneJ17_1" function="internal">
        <lane id=":gneJ17_1_0" index="0" speed="13.89" length="5.74" shape="99.41,96.43 96.27,96.07 94.17,94.77 94.13,94.67"/>
    </edge>
    <edge id=":gneJ17_6" function="internal">
        <lane id=":gneJ17_6_0" index="0" speed="13.89" length="5.52" shape="94.13,94.67 93.14,92.53 93.16,89.37"/>
    </edge>
    <edge id=":gneJ17_2" function="internal">
        <lane id=":gneJ17_2_0" index="0" speed="13.89" length="5.22" shape="96.42,89.86 96.41,91.33 96.89,92.36 97.86,92.97 99.32,93.14"/>
    </edge>
    <edge id=":gneJ17_3" function="internal">
        <lane id=":gneJ17_3_0" index="0" speed="13.89" length="10.64" shape="96.42,89.86 95.60,92.81 94.16,94.87 92.10,96.04 89.42,96.30"/>
    </edge>
    <edge id=":gneJ17_4" function="internal">
        <lane id=":gneJ17_4_0" index="0" speed="13.89" length="5.66" shape="89.62,93.00 90.95,92.85 91.99,92.19 92.72,91.03 93.16,89.37"/>
    </edge>
    <edge id=":gneJ17_5" function="internal">
        <lane id=":gneJ17_5_0" index="0" speed="13.89" length="9.70" shape="89.62,93.00 99.32,93.14"/>
    </edge>
    <edge id=":gneJ18_0" function="internal">
        <lane id=":gneJ18_0_0" index="0" speed="13.89" length="2.66" shape="73.12,42.65 72.39,42.71 71.87,43.00 71.55,43.50 71.43,44.22"/>
    </edge>
    <edge id=":gneJ18_1" function="internal">
        <lane id=":gneJ18_1_0" index="0" speed="13.89" length="8.15" shape="68.13,44.18 68.48,41.96 69.46,40.42 71.07,39.55 73.31,39.35"/>
    </edge>
    <edge id=":gneJ19_0" function="internal">
        <lane id=":gneJ19_0_0" index="0" speed="13.89" length="10.00" shape="102.11,37.43 101.99,47.42"/>
    </edge>
    <edge id=":gneJ19_1" function="internal">
        <lane id=":gneJ19_1_0" index="0" speed="13.89" length="5.67" shape="102.11,37.43 101.79,40.41 100.59,42.48 100.35,42.61"/>
    </edge>
    <edge id=":gneJ19_6" function="internal">
        <lane id=":gneJ19_6_0" index="0" speed="13.89" length="5.14" shape="100.35,42.61 98.49,43.65 95.50,43.91"/>
    </edge>
    <edge id=":gneJ19_2" function="internal">
        <lane id=":gneJ19_2_0" index="0" speed="13.89" length="5.11" shape="95.68,40.62 97.10,40.49 98.09,39.94 98.66,38.96 98.81,37.55"/>
    </edge>
    <edge id=":gneJ19_3" function="internal">
        <lane id=":gneJ19_3_0" index="0" speed="13.89" length="10.60" shape="95.68,40.62 98.60,41.18 100.62,42.51 101.75,44.59 101.99,47.42"/>
    </edge>
    <edge id=":gneJ19_4" function="internal">
        <lane id=":gneJ19_4_0" index="0" speed="13.89" length="5.25" shape="98.70,47.21 98.57,45.84 98.00,44.83 96.97,44.19 95.50,43.91"/>
    </edge>
    <edge id=":gneJ19_5" function="internal">
        <lane id=":gneJ19_5_0" index="0" speed="13.89" length="9.66" shape="98.70,47.21 98.81,37.55"/>
    </edge>
    <edge id=":gneJ2_0" function="internal">
        <lane id=":gneJ2_0_0" index="0" speed="13.89" length="9.18" shape="9.80,91.49 0.62,91.27"/>
    </edge>
    <edge id=":gneJ2_1" function="internal">
        <lane id=":gneJ2_1_0" index="0" speed="13.89" length="5.06" shape="9.80,91.49 7.09,90.95 5.18,89.66"/>
    </edge>
    <edge id=":gneJ2_6" function="internal">
        <lane id=":gneJ2_6_0" index="0" speed="13.89" length="5.09" shape="5.18,89.66 4.05,87.64 3.71,84.88"/>
    </edge>
    <edge id=":gneJ2_2" function="internal">
        <lane id=":gneJ2_2_0" index="0" speed="13.89" length="4.99" shape="7.01,84.94 7.17,86.30 7.73,87.30 8.66,87.93 9.99,88.20"/>
    </edge>
    <edge id=":gneJ2_3" function="internal">
        <lane id=":gneJ2_3_0" index="0" speed="13.89" length="10.20" shape="7.01,84.94 6.57,87.69 5.36,89.66 3.38,90.85 0.62,91.27"/>
    </edge>
    <edge id=":gneJ2_4" function="internal">
        <lane id=":gneJ2_4_0" index="0" speed="13.89" length="4.97" shape="0.60,87.97 1.94,87.77 2.90,87.18 3.49,86.22 3.71,84.88"/>
    </edge>
    <edge id=":gneJ2_5" function="internal">
        <lane id=":gneJ2_5_0" index="0" speed="13.89" length="9.39" shape="0.60,87.97 9.99,88.20"/>
    </edge>
    <edge id=":gneJ20_0" function="internal">
        <lane id=":gneJ20_0_0" index="0" speed="13.89" length="6.47" shape="104.48,64.29 102.80,64.58 101.50,65.33 100.59,66.54 100.05,68.21"/>
    </edge>
    <edge id=":gneJ20_1" function="internal">
        <lane id=":gneJ20_1_0" index="0" speed="13.89" length="10.40" shape="104.48,64.29 94.08,64.18"/>
    </edge>
    <edge id=":gneJ20_2" function="internal">
        <lane id=":gneJ20_2_0" index="0" speed="13.89" length="5.64" shape="104.48,64.29 101.49,63.96 99.42,62.74 99.31,62.54"/>
    </edge>
    <edge id=":gneJ20_12" function="internal">
        <lane id=":gneJ20_12_0" index="0" speed="13.89" length="5.18" shape="99.31,62.54 98.27,60.63 98.03,57.63"/>
    </edge>
    <edge id=":gneJ20_3" function="internal">
        <lane id=":gneJ20_3_0" index="0" speed="13.89" length="5.12" shape="101.32,57.85 101.43,59.26 101.98,60.26 102.96,60.84 104.37,61.00"/>
    </edge>
    <edge id=":gneJ20_4" function="internal">
        <lane id=":gneJ20_4_0" index="0" speed="13.89" length="10.44" shape="101.32,57.85 100.05,68.21"/>
    </edge>
    <edge id=":gneJ20_5" function="internal">
        <lane id=":gneJ20_5_0" index="0" speed="13.89" length="5.79" shape="101.32,57.85 100.71,60.75 99.30,62.78 98.99,62.94"/>
    </edge>
    <edge id=":gneJ20_13" function="internal">
        <lane id=":gneJ20_13_0" index="0" speed="13.89" length="5.16" shape="98.99,62.94 97.09,63.92 94.08,64.18"/>
    </edge>
    <edge id=":gneJ20_6" function="internal">
        <lane id=":gneJ20_6_0" index="0" speed="13.89" length="5.66" shape="94.26,60.89 95.83,60.75 96.98,60.17 97.71,59.13 98.03,57.63"/>
    </edge>
    <edge id=":gneJ20_7" function="internal">
        <lane id=":gneJ20_7_0" index="0" speed="13.89" length="10.12" shape="94.26,60.89 104.37,61.00"/>
    </edge>
    <edge id=":gneJ20_8" function="internal">
        <lane id=":gneJ20_8_0" index="0" speed="13.89" length="5.03" shape="94.26,60.89 97.26,61.48 98.85,62.63"/>
    </edge>
    <edge id=":gneJ20_14" function="internal">
        <lane id=":gneJ20_14_0" index="0" speed="13.89" length="5.95" shape="98.85,62.63 99.23,62.90 100.16,65.14 100.05,68.21"/>
    </edge>
    <edge id=":gneJ20_9" function="internal">
        <lane id=":gneJ20_9_0" index="0" speed="13.89" length="5.16" shape="96.80,67.62 96.86,66.18 96.42,65.13 95.49,64.46 94.08,64.18"/>
    </edge>
    <edge id=":gneJ20_10" function="internal">
        <lane id=":gneJ20_10_0" index="0" speed="13.89" length="10.06" shape="96.80,67.62 98.03,57.63"/>
    </edge>
    <edge id=":gneJ20_11" function="internal">
        <lane id=":gneJ20_11_0" index="0" speed="13.89" length="5.21" shape="96.80,67.62 97.71,64.80 99.08,63.02"/>
    </edge>
    <edge id=":gneJ20_15" function="internal">
        <lane id=":gneJ20_15_0" index="0" speed="13.89" length="5.81" shape="99.08,63.02 99.28,62.76 101.50,61.49 104.37,61.00"/>
    </edge>
    <edge id=":gneJ21_0" function="internal">
        <lane id=":gneJ21_0_0" index="0" speed="13.89" length="9.77" shape="132.76,57.72 131.41,67.40"/>
    </edge>
    <edge id=":gneJ21_1" function="internal">
        <lane id=":gneJ21_1_0" index="0" speed="13.89" length="5.07" shape="132.76,57.72 132.03,60.22 130.54,62.03 130.43,62.09"/>
    </edge>
    <edge id=":gneJ21_6" function="internal">
        <lane id=":gneJ21_6_0" index="0" speed="13.89" length="5.48" shape="130.43,62.09 128.28,63.16 125.25,63.62"/>
    </edge>
    <edge id=":gneJ21_2" function="internal">
        <lane id=":gneJ21_2_0" index="0" speed="13.89" length="5.80" shape="125.14,60.32 126.91,60.08 128.22,59.51 129.08,58.59 129.48,57.33"/>
    </edge>
    <edge id=":gneJ21_3" function="internal">
        <lane id=":gneJ21_3_0" index="0" speed="13.89" length="11.32" shape="125.14,60.32 128.31,60.67 130.41,61.97 131.44,64.21 131.41,67.40"/>
    </edge>
    <edge id=":gneJ21_4" function="internal">
        <lane id=":gneJ21_4_0" index="0" speed="13.89" length="5.24" shape="128.15,66.89 128.16,65.42 127.68,64.38 126.71,63.78 125.25,63.62"/>
    </edge>
    <edge id=":gneJ21_5" function="internal">
        <lane id=":gneJ21_5_0" index="0" speed="13.89" length="9.65" shape="128.15,66.89 129.48,57.33"/>
    </edge>
    <edge id=":gneJ24_0" function="internal">
        <lane id=":gneJ24_0_0" index="0" speed="13.89" length="6.89" shape="127.61,91.67 127.08,93.44 126.12,94.71 124.72,95.50 122.90,95.80"/>
    </edge>
    <edge id=":gneJ24_1" function="internal">
        <lane id=":gneJ24_1_0" index="0" speed="13.89" length="2.25" shape="122.81,92.50 123.41,92.41 123.86,92.15 124.18,91.73 124.35,91.15"/>
    </edge>
    <edge id=":gneJ30_0" function="internal">
        <lane id=":gneJ30_0_0" index="0" speed="13.89" length="9.61" shape="130.09,75.89 128.60,85.38"/>
    </edge>
    <edge id=":gneJ30_1" function="internal">
        <lane id=":gneJ30_1_0" index="0" speed="13.89" length="4.90" shape="130.09,75.89 129.29,78.32 127.75,80.08"/>
    </edge>
    <edge id=":gneJ30_6" function="internal">
        <lane id=":gneJ30_6_0" index="0" speed="13.89" length="5.56" shape="127.75,80.08 125.48,81.16 122.46,81.57"/>
    </edge>
    <edge id=":gneJ30_2" function="internal">
        <lane id=":gneJ30_2_0" index="0" speed="13.89" length="5.80" shape="122.39,78.27 124.17,78.06 125.50,77.51 126.39,76.61 126.83,75.38"/>
    </edge>
    <edge id=":gneJ30_3" function="internal">
        <lane id=":gneJ30_3_0" index="0" speed="13.89" length="11.26" shape="122.39,78.27 125.54,78.66 127.62,79.97 128.64,82.22 128.60,85.38"/>
    </edge>
    <edge id=":gneJ30_4" function="internal">
        <lane id=":gneJ30_4_0" index="0" speed="13.89" length="5.23" shape="125.34,84.87 125.36,83.40 124.89,82.36 123.92,81.75 122.46,81.57"/>
    </edge>
    <edge id=":gneJ30_5" function="internal">
        <lane id=":gneJ30_5_0" index="0" speed="13.89" length="9.61" shape="125.34,84.87 126.83,75.38"/>
    </edge>
    <edge id=":gneJ33_0" function="internal">
        <lane id=":gneJ33_0_0" index="0" speed="13.89" length="8.02" shape="-32.63,91.54 -34.81,91.25 -36.37,90.32 -37.28,88.77 -37.57,86.59"/>
    </edge>
    <edge id=":gneJ33_1" function="internal">
        <lane id=":gneJ33_1_0" index="0" speed="13.89" length="2.62" shape="-34.27,86.62 -34.18,87.34 -33.88,87.84 -33.37,88.15 -32.66,88.24"/>
    </edge>
    <edge id=":gneJ4_0" function="internal">
        <lane id=":gneJ4_0_0" index="0" speed="13.89" length="5.52" shape="10.71,64.67 9.23,64.95 8.17,65.63 7.52,66.71 7.29,68.19"/>
    </edge>
    <edge id=":gneJ4_1" function="internal">
        <lane id=":gneJ4_1_0" index="0" speed="13.89" length="9.86" shape="10.71,64.67 0.86,65.06"/>
    </edge>
    <edge id=":gneJ4_2" function="internal">
        <lane id=":gneJ4_2_0" index="0" speed="13.89" length="5.29" shape="10.71,64.67 7.80,64.38 5.73,63.23"/>
    </edge>
    <edge id=":gneJ4_12" function="internal">
        <lane id=":gneJ4_12_0" index="0" speed="13.89" length="5.29" shape="5.73,63.23 4.50,61.20 4.11,58.31"/>
    </edge>
    <edge id=":gneJ4_3" function="internal">
        <lane id=":gneJ4_3_0" index="0" speed="13.89" length="5.06" shape="7.41,58.33 7.59,59.72 8.18,60.69 9.17,61.24 10.56,61.38"/>
    </edge>
    <edge id=":gneJ4_4" function="internal">
        <lane id=":gneJ4_4_0" index="0" speed="13.89" length="9.86" shape="7.41,58.33 7.29,68.19"/>
    </edge>
    <edge id=":gneJ4_5" function="internal">
        <lane id=":gneJ4_5_0" index="0" speed="13.89" length="5.42" shape="7.41,58.33 6.98,61.19 5.75,63.27 5.65,63.33"/>
    </edge>
    <edge id=":gneJ4_13" function="internal">
        <lane id=":gneJ4_13_0" index="0" speed="13.89" length="5.19" shape="5.65,63.33 3.70,64.56 0.86,65.06"/>
    </edge>
    <edge id=":gneJ4_6" function="internal">
        <lane id=":gneJ4_6_0" index="0" speed="13.89" length="5.45" shape="0.74,61.76 2.20,61.50 3.25,60.84 3.89,59.78 4.11,58.31"/>
    </edge>
    <edge id=":gneJ4_7" function="internal">
        <lane id=":gneJ4_7_0" index="0" speed="13.89" length="9.83" shape="0.74,61.76 10.56,61.38"/>
    </edge>
    <edge id=":gneJ4_8" function="internal">
        <lane id=":gneJ4_8_0" index="0" speed="13.89" length="5.29" shape="0.74,61.76 3.65,62.08 5.71,63.25"/>
    </edge>
    <edge id=":gneJ4_14" function="internal">
        <lane id=":gneJ4_14_0" index="0" speed="13.89" length="5.29" shape="5.71,63.25 6.92,65.29 7.29,68.19"/>
    </edge>
    <edge id=":gneJ4_9" function="internal">
        <lane id=":gneJ4_9_0" index="0" speed="13.89" length="5.06" shape="3.99,68.13 3.81,66.75 3.23,65.77 2.25,65.21 0.86,65.06"/>
    </edge>
    <edge id=":gneJ4_10" function="internal">
        <lane id=":gneJ4_10_0" index="0" speed="13.89" length="9.83" shape="3.99,68.13 4.11,58.31"/>
    </edge>
    <edge id=":gneJ4_11" function="internal">
        <lane id=":gneJ4_11_0" index="0" speed="13.89" length="5.31" shape="3.99,68.13 4.44,65.28 5.69,63.21"/>
    </edge>
    <edge id=":gneJ4_15" function="internal">
        <lane id=":gneJ4_15_0" index="0" speed="13.89" length="5.31" shape="5.69,63.21 7.73,61.91 10.56,61.38"/>
    </edge>
    <edge id=":gneJ5_0" function="internal">
        <lane id=":gneJ5_0_0" index="0" speed="13.89" length="9.03" shape="10.74,25.38 9.38,25.86 8.41,27.30 7.81,29.71 7.59,33.07"/>
    </edge>
    <edge id=":gneJ5_1" function="internal">
        <lane id=":gneJ5_1_0" index="0" speed="13.89" length="12.30" shape="10.74,25.38 7.53,25.84 5.09,27.10 2.91,29.02 0.51,31.45"/>
    </edge>
    <edge id=":gneJ5_2" function="internal">
        <lane id=":gneJ5_2_0" index="0" speed="13.89" length="3.80" shape="10.74,25.38 7.96,25.00 7.09,24.50"/>
    </edge>
    <edge id=":gneJ5_12" function="internal">
        <lane id=":gneJ5_12_0" index="0" speed="13.89" length="6.37" shape="7.09,24.50 5.94,23.85 4.65,21.93 4.12,19.25"/>
    </edge>
    <edge id=":gneJ5_3" function="internal">
        <lane id=":gneJ5_3_0" index="0" speed="13.89" length="5.06" shape="7.41,19.07 7.68,20.39 8.32,21.33 9.34,21.89 10.74,22.08"/>
    </edge>
    <edge id=":gneJ5_4" function="internal">
        <lane id=":gneJ5_4_0" index="0" speed="13.89" length="14.01" shape="7.41,19.07 7.59,33.07"/>
    </edge>
    <edge id=":gneJ5_5" function="internal">
        <lane id=":gneJ5_5_0" index="0" speed="13.89" length="6.03" shape="7.41,19.07 7.09,21.84 5.83,24.82"/>
    </edge>
    <edge id=":gneJ5_13" function="internal">
        <lane id=":gneJ5_13_0" index="0" speed="13.89" length="8.52" shape="5.83,24.82 3.64,28.03 0.51,31.45"/>
    </edge>
    <edge id=":gneJ5_6" function="internal">
        <lane id=":gneJ5_6_0" index="0" speed="13.89" length="11.76" shape="-1.80,29.09 0.86,26.22 2.74,23.62 3.82,21.30 4.12,19.25"/>
    </edge>
    <edge id=":gneJ5_7" function="internal">
        <lane id=":gneJ5_7_0" index="0" speed="13.89" length="14.73" shape="-1.80,29.09 0.96,26.52 3.93,24.27 7.17,22.68 10.74,22.08"/>
    </edge>
    <edge id=":gneJ5_8" function="internal">
        <lane id=":gneJ5_8_0" index="0" speed="13.89" length="7.62" shape="-1.80,29.09 2.34,25.84 4.67,25.51"/>
    </edge>
    <edge id=":gneJ5_14" function="internal">
        <lane id=":gneJ5_14_0" index="0" speed="13.89" length="8.87" shape="4.67,25.51 5.29,25.42 7.04,27.83 7.59,33.07"/>
    </edge>
    <edge id=":gneJ5_9" function="internal">
        <lane id=":gneJ5_9_0" index="0" speed="13.89" length="6.64" shape="4.29,33.05 4.07,30.94 3.37,29.97 2.18,30.14 0.51,31.45"/>
    </edge>
    <edge id=":gneJ5_10" function="internal">
        <lane id=":gneJ5_10_0" index="0" speed="13.89" length="13.80" shape="4.29,33.05 4.12,19.25"/>
    </edge>